ChemCAD 4, 0, 0, 60   License: ICARUS, INC.                                               Page: 1

Job Code: AUTOREB   Case Code: AUTOREB    Date: 9/11/98  Time: 10:51 AM

FLOWSHEET SUMMARY

Equipment   Label         Stream Numbers

   1 HTXR          HX1   11   4 -15  -8
   2 HTXR          HX2   12   3 -16  -7
   3 HTXR          HX3   13   2 -17  -6
   4 HTXR          HX4   14   1 -18  -5
   5 HTXR          HT1   15  25 -19 -29
   6 HTXR          HT2   16  26 -20 -30
   7 HTXR          HT3   17  27 -21 -31
   8 HTXR          HT4   18  28 -22 -32
   9 DIVI                24 -11 -12 -13 -14
  10 DIVI                 9  -1  -2  -3  -4
  11 CONT                 5 -68
  12 CONT                 6 -69
  13 CONT                 7 -70
  14 MIXE                 8  70  69  68 -10
  15 SREF                19 -49
  16 SREF                20 -50
  17 SREF                21 -51
  18 SREF                22 -67
  19 MIXE                67  51  50  49 -23


Stream Connections

Stream     Equipment      Stream     Equipment      Stream     Equipment
          From    To                From    To                From    To
    1       10     4         14        9     4         27              7
    2       10     3         15        1     5         28              8
    3       10     2         16        2     6         29        5      
    4       10     1         17        3     7         30        6      
    5        4    11         18        4     8         31        7      
    6        3    12         19        5    15         32        8      
    7        2    13         20        6    16         49       15    19
    8        1    14         21        7    17         50       16    19
    9             10         22        8    18         51       17    19
   10       14               23       19               67       18    19
   11        9     1         24              9         68       11    14
   12        9     2         25              5         69       12    14
   13        9     3         26              6         70       13    14


Calculation mode : AutoCalc
Flash algorithm  : Normal

Equipment Calculation Sequence
   9  10   1   2   3   4   5   6   7   8  11  12  13  14  15  16  17  18
  19

No recycle loops in the flowsheet.


COMPONENTS
          ID #         Name

   1        62       Water           
   2        40       Benzene         
   3        41       Toluene         
   4        44       P-Xylene        

THERMODYNAMICS

 K-value model     :  SRK
 Enthalpy model    :  SRK
 Liquid density    :  API

ChemCAD 4, 0, 0, 60   License: ICARUS, INC.                                               Page: 2

Job Code: AUTOREB   Case Code: AUTOREB    Date: 9/11/98  Time: 10:51 AM

Overall Mass Balance        lbmol/h                    lb/h
                        Input       Output        Input       Output
Water                3274.140     3274.140    58983.624    58983.624
Benzene              3071.193     3071.193   239903.155   239903.155
Toluene              2566.554     2566.554   236484.823   236484.823
P-Xylene            11602.139    11602.139  1231764.254  1231764.254

Total               20514.025    20514.025  1767135.875  1767135.875
ChemCAD 4, 0, 0, 60   License: ICARUS, INC.                                               Page: 3

Job Code: AUTOREB   Case Code: AUTOREB    Date: 9/11/98  Time: 10:51 AM
EQUIPMENT SUMMARIES 

                      Heat Exchanger Summary

Equip. No.                      1            2            3            4
       Name                     HX1          HX2          HX3          HX4
Pressure drop 1  psi         0.8952       0.8952       0.8952       0.8952
Pressure drop 2  psi         1.0505       1.0505       1.0505       1.0505
T Out Str 1       F        260.5000     261.0000     262.0000     263.0000
T Out Str 2       F        311.3207     307.0000     306.0000     305.5000
Area/shell  ft2           1000.0000    1000.0000    1000.0000    1000.0000
Backcalc Mode (for Autocalc):          0            2            2            2  
Calc Ht Duty                 2.9302       2.9930       4.6727       7.0773
 (MMBtu/h)
LMTD (End points)  F        64.5409      61.6214      60.5983      59.8753
LMTD Corr Factor             1.0000       1.0000       1.0000       1.0000
Calc U                      45.4012      48.5700      77.1098     118.2014
 (Btu/hr-ft2-F)
Str1 Pout                   29.0000      29.0000      29.0000      29.0000
 (psia)
Str2 Pout                   32.0000      32.0000      32.0000      32.0000
 (psia)

Equip. No.                      5            6            7            8
       Name                     HT1          HT2          HT3          HT4
Pressure drop 1  psi         1.0000       1.0000       1.0000       1.0000
T Out Str 1       F        269.5000     272.0000     271.0000     270.0000
T Out Str 2       F        450.0000     450.0000     450.0000     450.0000
VF Out Str 2            1.0000e-004  1.0000e-004  1.0000e-004  1.0000e-004
Area/shell  ft2           1000.0000    1000.0000    1000.0000    1000.0000
Backcalc Mode (for Autocalc):          1            1            1            1  
Calc Ht Duty                12.0218      12.1042      12.1865      12.2689
 (MMBtu/h)
LMTD (End points)  F       170.2548     168.7908     168.7531     168.7113
LMTD Corr Factor             1.0000       1.0000       1.0000       1.0000
Calc U                      70.6108      71.7110      72.2150      72.7210
 (Btu/hr-ft2-F)
Str1 Pout                   28.0000      28.0000      28.0000      28.0000
 (psia)
Str2 Pout                  314.6960     314.6960     314.6960     314.6960
 (psia)



                      Divider Summary

Equip. No.                      9           10
       Name                                     
Split based on                  2            1  
Output stream #1             0.2421    3608.0410
Output stream #2             0.2080    2416.3511
Output stream #3             0.2471    1593.4834
Output stream #4             0.3027             



                      Controller Summary

Equip. No.                     11           12           13
       Name                                                  
Mode:                           1            1            1  
Equip. no. adjusted            10           10           10  
Variable No.                    3            4            5  
Sign Flag                       0            0            0  

 Measured variables:
Number                          5            6            7  
Variable                        5            5            5  


ChemCAD 4, 0, 0, 60   License: ICARUS, INC.                                               Page: 4

Job Code: AUTOREB   Case Code: AUTOREB    Date: 9/11/98  Time: 10:51 AM
EQUIPMENT SUMMARIES 

                      Mixer Summary

Equip. No.                     14           19
       Name                                     



                      Stream Reference Summary

Equip. No.                     15           16           17           18
       Name                                                               
Select mode:                    1            1            1            1  
Select option:                  2            2            2            2  
Destination stream no.              11           12           13           14  
Source str no                  19           20           21           22  

ChemCAD 4, 0, 0, 60   License: ICARUS, INC.                                               Page: 5

Job Code: AUTOREB   Case Code: AUTOREB    Date: 9/11/98  Time: 10:51 AM
STREAM PROPERTIES 

Stream No.                      1             2             3             4             5
       Name                                                                               
- - Overall - -
Molar flow lbmol/h      3608.0413     2416.3513     1593.4835     1805.8815     3608.0413 
Mass flow  lb/h       382855.7500   256403.3906   169087.4063   191625.3281   382855.7500 
Temp F                   340.0000      340.0000      340.0000      340.0000      305.5000 
Pres psia                 33.0505       33.0505       33.0505       33.0505       32.0000 
Vapor mole fraction    1.000E-005    1.000E-005    1.000E-005    1.000E-005        0.0000 
Enth MMBtu/h              8.91022       5.96729       3.93518       4.45971       1.83288 
Tc F                     649.3558      649.3558      649.3558      649.3558      649.3558 
Pc psia                  509.7829      509.7829      509.7826      509.7829      509.7829 
Std. sp gr , wtr = 1        0.866         0.866         0.866         0.866         0.866 
Std. sp gr , air = 1        3.664         3.664         3.664         3.664         3.664 
Degree API                31.9596       31.9596       31.9596       31.9596       31.9596 
Average mol wt           106.1118      106.1118      106.1118      106.1118      106.1118 
Actual dens lb/ft3        44.6966       44.6966       44.6966       44.6966       46.0533 
Actual vol ft3/hr       8565.6511     5736.5270     3783.0012     4287.2436     8313.3096 
Std liq  ft3/hr         7090.9219     4748.8813     3131.6902     3549.1182     7090.9219 
Std vap 60F scfh     1369174.5000   916953.6875   604692.9375   685293.4375  1369174.5000 
- - Vapor only - -
Molar flow lbmol/h         0.0361        0.0242        0.0159        0.0181               
Mass flow  lb/h            3.8247        2.5614        1.6892        1.9143               
Average mol wt           106.0048      106.0047      106.0047      106.0048               
Actual dens lb/ft3         0.4371        0.4371        0.4371        0.4371               
Actual vol ft3/hr          8.7507        5.8605        3.8647        4.3799               
Std liq  ft3/hr            0.0708        0.0474        0.0313        0.0355               
Std vap 60F scfh          13.6917        9.1695        6.0469        6.8529               
Cp Btu/lb-F                0.4184        0.4184        0.4184        0.4185               
Z factor                   0.9342        0.9342        0.9342        0.9342               
Visc cP                  0.009474      0.009474      0.009474      0.009474               
Th cond Btu/hr-ft-F        0.0138        0.0138        0.0138        0.0138               
- - Liquid only - -
Molar flow lbmol/h      3608.0052     2416.3272     1593.4676     1805.8634     3608.0413 
Mass flow  lb/h       382851.9253   256400.8292   169085.7171   191623.4138   382855.7500 
Average mol wt           106.1118      106.1118      106.1118      106.1118      106.1118 
Actual dens lb/ft3        44.7419       44.7419       44.7419       44.7419       46.0533 
Actual vol ft3/hr       8556.9004     5730.6665     3779.1365     4282.8638     8313.3096 
Std liq  ft3/hr         7090.8511     4748.8335     3131.6589     3549.0825     7090.9219 
Std vap 60F scfh     1369160.8750   916944.5000   604686.8750   685286.5625  1369174.5000 
Cp Btu/lb-F                0.5436        0.5436        0.5436        0.5436        0.5226 
Z factor                   0.0105        0.0105        0.0105        0.0105        0.0104 
Visc cP                    0.1788        0.1788        0.1788        0.1788        0.2011 
Th cond Btu/hr-ft-F        0.0551        0.0551        0.0551        0.0551        0.0577 
Surf tens dyne/cm         12.7829       12.7829       12.7829       12.7829       14.6184 
ChemCAD 4, 0, 0, 60   License: ICARUS, INC.                                               Page: 6

Job Code: AUTOREB   Case Code: AUTOREB    Date: 9/11/98  Time: 10:51 AM
STREAM PROPERTIES 

Stream No.                      6             7             8             9            10
       Name                                                       COL2 BTMS               
- - Overall - -
Molar flow lbmol/h      2416.3511     1593.4834     1805.8815     9423.7578     9423.7578 
Mass flow  lb/h       256403.3594   169087.3906   191625.3281   999971.8125   999971.8125 
Temp F                   306.0000      307.0000      311.5876      340.0000      307.0513 
Pres psia                 32.0000       32.0000       32.0000       33.0505       32.0000 
Vapor mole fraction        0.0000        0.0000        0.0000    1.000E-005        0.0000 
Enth MMBtu/h              1.29456      0.942229       1.52947       23.2724       5.59914 
Tc F                     649.3558      649.3558      649.3558      649.3558      649.3558 
Pc psia                  509.7829      509.7826      509.7829      509.7829      509.7829 
Std. sp gr , wtr = 1        0.866         0.866         0.866         0.866         0.866 
Std. sp gr , air = 1        3.664         3.664         3.664         3.664         3.664 
Degree API                31.9596       31.9596       31.9596       31.9596       31.9596 
Average mol wt           106.1118      106.1118      106.1118      106.1118      106.1118 
Actual dens lb/ft3        46.0349       45.9980       45.8276       44.6966       45.9961 
Actual vol ft3/hr       5569.7603     3675.9766     4181.4351    22372.4241    21740.3828 
Std liq  ft3/hr         4748.8809     3131.6899     3549.1182    18520.6094    18520.6094 
Std vap 60F scfh      916953.5625   604692.8750   685293.4375  3576114.7500  3576114.7500 
- - Vapor only - -
Molar flow lbmol/h                                                   0.0942               
Mass flow  lb/h                                                      9.9896               
Average mol wt                                                     106.0048               
Actual dens lb/ft3                                                   0.4371               
Actual vol ft3/hr                                                   22.8557               
Std liq  ft3/hr                                                      0.1850               
Std vap 60F scfh                                                    35.7611               
Cp Btu/lb-F                                                          0.4185               
Z factor                                                             0.9342               
Visc cP                                                            0.009474               
Th cond Btu/hr-ft-F                                                  0.0138               
- - Liquid only - -
Molar flow lbmol/h      2416.3511     1593.4834     1805.8815     9423.6636     9423.7578 
Mass flow  lb/h       256403.3594   169087.3906   191625.3281   999961.8229   999971.8125 
Average mol wt           106.1118      106.1118      106.1118      106.1118      106.1118 
Actual dens lb/ft3        46.0349       45.9980       45.8276       44.7419       45.9961 
Actual vol ft3/hr       5569.7603     3675.9766     4181.4351    22349.5684    21740.3828 
Std liq  ft3/hr         4748.8809     3131.6899     3549.1182    18520.4277    18520.6094 
Std vap 60F scfh      916953.5625   604692.8750   685293.4375  3576079.0000  3576114.7500 
Cp Btu/lb-F                0.5229        0.5235        0.5262        0.5436        0.5235 
Z factor                   0.0103        0.0103        0.0103        0.0105        0.0103 
Visc cP                    0.2008        0.2001        0.1969        0.1788        0.2000 
Th cond Btu/hr-ft-F        0.0576        0.0576        0.0572        0.0551        0.0576 
Surf tens dyne/cm         14.5914       14.5375       14.2908       12.7829       14.5347 
ChemCAD 4, 0, 0, 60   License: ICARUS, INC.                                               Page: 7

Job Code: AUTOREB   Case Code: AUTOREB    Date: 9/11/98  Time: 10:51 AM
STREAM PROPERTIES 

Stream No.                     11            12            13            14            15
       Name                                                                               
- - Overall - -
Molar flow lbmol/h      1892.5454     1626.0283     1931.3843     2366.1697     1892.5454 
Mass flow  lb/h       171474.1094   147326.3125   174993.0938   214386.8281   171474.1094 
Temp F                   260.0000      260.0000      260.0000      260.0000      260.5000 
Pres psia                 29.8952       29.8952       29.8952       29.8952       29.0000 
Vapor mole fraction    1.088E-005    1.000E-005    1.000E-005    1.000E-005        0.1159 
Enth MMBtu/h              27.0055       23.2025       27.5597       33.7638       29.9357 
Tc F                     603.3521      603.3521      603.3520      603.3520      603.3521 
Pc psia                  642.3704      642.3704      642.3704      642.3704      642.3704 
Std. sp gr , wtr = 1        0.874         0.874         0.874         0.874         0.874 
Std. sp gr , air = 1        3.128         3.128         3.128         3.128         3.128 
Degree API                30.4181       30.4181       30.4181       30.4181       30.4181 
Average mol wt            90.6050       90.6050       90.6050       90.6050       90.6050 
Actual dens lb/ft3        47.4864       47.4917       47.4917       47.4917        2.9156 
Actual vol ft3/hr       3611.0134     3102.1456     3684.7055     4514.1909    58813.5137 
Std liq  ft3/hr         3145.9438     2702.9175     3210.5051     3933.2407     3145.9438 
Std vap 60F scfh      718180.5000   617043.0000   732919.0625   897910.8125   718180.5000 
- - Vapor only - -
Molar flow lbmol/h         0.0206        0.0163        0.0193        0.0237      219.2577 
Mass flow  lb/h            1.7411        1.3751        1.6334        2.0011    18664.1753 
Average mol wt            84.5699       84.5699       84.5699       84.5699       85.1243 
Actual dens lb/ft3         0.3444        0.3444        0.3444        0.3444        0.3357 
Actual vol ft3/hr          5.0556        3.9930        4.7429        5.8106    55598.9531 
Std liq  ft3/hr            0.0318        0.0251        0.0298        0.0365      340.8561 
Std vap 60F scfh           7.8125        6.1704        7.3292        8.9791    83203.6563 
Cp Btu/lb-F                0.3535        0.3535        0.3535        0.3535        0.3544 
Z factor                   0.9507        0.9507        0.9507        0.9507        0.9516 
Visc cP                  0.009804      0.009804      0.009804      0.009804      0.009772 
Th cond Btu/hr-ft-F        0.0113        0.0113        0.0113        0.0113        0.0114 
- - Liquid only - -
Molar flow lbmol/h      1892.5248     1626.0121     1931.3650     2366.1460     1673.2877 
Mass flow  lb/h       171472.3683   147324.9374   174991.4604   214384.8271   152809.9341 
Average mol wt            90.6051       90.6051       90.6051       90.6051       91.3232 
Actual dens lb/ft3        47.5525       47.5525       47.5525       47.5525       47.5368 
Actual vol ft3/hr       3605.9578     3098.1526     3679.9626     4508.3804     3214.5605 
Std liq  ft3/hr         3145.9124     2702.8923     3210.4753     3933.2041     2805.0879 
Std vap 60F scfh      718172.7500   617036.8125   732911.7500   897901.8125   634976.9375 
Cp Btu/lb-F                0.4885        0.4886        0.4885        0.4885        0.4891 
Z factor                   0.0083        0.0083        0.0083        0.0083        0.0081 
Visc cP                    0.2154        0.2154        0.2154        0.2154        0.2156 
Th cond Btu/hr-ft-F        0.0627        0.0627        0.0627        0.0627        0.0626 
Surf tens dyne/cm         16.3255       16.3255       16.3255       16.3255       16.3385 
ChemCAD 4, 0, 0, 60   License: ICARUS, INC.                                               Page: 8

Job Code: AUTOREB   Case Code: AUTOREB    Date: 9/11/98  Time: 10:51 AM
STREAM PROPERTIES 

Stream No.                     16            17            18            19            20
       Name                                                                               
- - Overall - -
Molar flow lbmol/h      1626.0291     1931.3872     2366.1675     1892.5454     1626.0291 
Mass flow  lb/h       147326.3906   174993.3594   214386.6563   171474.1094   147326.3906 
Temp F                   261.0000      262.0000      263.0000      269.5000      272.0000 
Pres psia                 29.0000       29.0000       29.0000       28.0000       28.0000 
Vapor mole fraction        0.1363        0.1766        0.2163        0.5575        0.6500 
Enth MMBtu/h              26.1954       32.2325       40.8411       41.9576       38.2996 
Tc F                     603.3521      603.3520      603.3521      603.3521      603.3521 
Pc psia                  642.3710      642.3704      642.3704      642.3704      642.3710 
Std. sp gr , wtr = 1        0.874         0.874         0.874         0.874         0.874 
Std. sp gr , air = 1        3.128         3.128         3.128         3.128         3.128 
Degree API                30.4181       30.4181       30.4181       30.4181       30.4181 
Average mol wt            90.6050       90.6050       90.6050       90.6050       90.6050 
Actual dens lb/ft3         2.5000        1.9503        1.6026        0.6073        0.5202 
Actual vol ft3/hr      58929.5984    89725.2429   133772.9082   282343.1846   283194.6952 
Std liq  ft3/hr         2702.9187     3210.5100     3933.2375     3145.9438     2702.9187 
Std vap 60F scfh      617043.2500   732920.1875   897910.0000   718180.5000   617043.2500 
- - Vapor only - -
Molar flow lbmol/h       221.5875      341.0523      511.6889     1055.1050     1056.9234 
Mass flow  lb/h        18886.4478    29142.9085    43836.1654    92551.3483    93345.5615 
Average mol wt            85.2324       85.4499       85.6694       87.7177       88.3182 
Actual dens lb/ft3         0.3359        0.3363        0.3367        0.3297        0.3310 
Actual vol ft3/hr      56226.6406    86653.5000   130178.1719   280671.5625   282049.1875 
Std liq  ft3/hr          344.9497      532.3841      800.9611     1694.0961     1709.4852 
Std vap 60F scfh       84087.8125   129422.1563   194175.3281   400389.5938   401079.6250 
Cp Btu/lb-F                0.3548        0.3556        0.3564        0.3623        0.3643 
Z factor                   0.9516        0.9515        0.9515        0.9520        0.9518 
Visc cP                  0.009772      0.009771      0.009770      0.009719      0.009712 
Th cond Btu/hr-ft-F        0.0114        0.0114        0.0114        0.0117        0.0117 
- - Liquid only - -
Molar flow lbmol/h      1404.4415     1590.3349     1854.4785      837.4404      569.1057 
Mass flow  lb/h       128439.9429   145850.4509   170550.4909    78922.7611    53980.8291 
Average mol wt            91.4527       91.7105       91.9669       94.2428       94.8519 
Actual dens lb/ft3        47.5183       47.4813       47.4445       47.2133       47.1239 
Actual vol ft3/hr       2702.9578     3071.7429     3594.7363     1671.6221     1145.5077 
Std liq  ft3/hr         2357.9690     2678.1262     3132.2761     1451.8480      993.4335 
Std vap 60F scfh      532955.4375   603498.0000   703734.6250   317790.9688   215963.6094 
Cp Btu/lb-F                0.4895        0.4902        0.4910        0.4960        0.4978 
Z factor                   0.0081        0.0082        0.0082        0.0081        0.0081 
Visc cP                    0.2152        0.2145        0.2138        0.2100        0.2084 
Th cond Btu/hr-ft-F        0.0625        0.0624        0.0623        0.0615        0.0612 
Surf tens dyne/cm         16.3161       16.2715       16.2269       15.9760       15.8650 
ChemCAD 4, 0, 0, 60   License: ICARUS, INC.                                               Page: 9

Job Code: AUTOREB   Case Code: AUTOREB    Date: 9/11/98  Time: 10:51 AM
STREAM PROPERTIES 

Stream No.                     21            22            23            24            25
       Name                                                       COL1 BTMS               
- - Overall - -
Molar flow lbmol/h      1931.3872     2366.1675     7816.1279     7816.1279      810.2109 
Mass flow  lb/h       174993.3594   214386.6563   708180.3750   708180.3750    14595.9482 
Temp F                   271.0000      270.0000      270.5442      260.0000      450.0000 
Pres psia                 28.0000       28.0000       28.0000       29.8952      314.6960 
Vapor mole fraction        0.6130        0.5760        0.5961    1.000E-005         1.000 
Enth MMBtu/h              44.4190       53.1100       177.786       111.531      -82.4325 
Tc F                     603.3520      603.3521      603.3520      603.3520      705.5600 
Pc psia                  642.3704      642.3704      642.3704      642.3704     3207.9768 
Std. sp gr , wtr = 1        0.874         0.874         0.874         0.874         1.000 
Std. sp gr , air = 1        3.128         3.128         3.128         3.128         0.622 
Degree API                30.4181       30.4181       30.4181       30.4181       10.0110 
Average mol wt            90.6050       90.6050       90.6050       90.6050       18.0150 
Actual dens lb/ft3         0.5520        0.5877        0.5677       47.4917        0.6315 
Actual vol ft3/hr     317019.4899   364775.5402  1247358.1787    14911.6510    23111.8145 
Std liq  ft3/hr         3210.5100     3933.2375    12992.6074    12992.6074      234.0344 
Std vap 60F scfh      732920.1875   897910.0000  2966053.5000  2966053.5000   307457.7188 
- - Vapor only - -
Molar flow lbmol/h      1183.8468     1362.8607     4659.1214        0.0782      810.2109 
Mass flow  lb/h       104269.1658   119709.3889   409849.2293        6.6101    14595.9482 
Average mol wt            88.0766       87.8369       87.9671       84.5699       18.0150 
Actual dens lb/ft3         0.3305        0.3300        0.3302        0.3444        0.6315 
Actual vol ft3/hr     315519.8125   362769.4688  1241034.3750       19.1940    23111.8145 
Std liq  ft3/hr         1909.1549     2191.4258     7503.6040        0.1207      234.0344 
Std vap 60F scfh      449244.3125   517176.2188  1768036.1250       29.6605   307457.7188 
Cp Btu/lb-F                0.3635        0.3627        0.3631        0.3535        0.6859 
Z factor                   0.9518        0.9519        0.9519        0.9507        0.9197 
Visc cP                  0.009715      0.009717      0.009716      0.009804       0.01787 
Th cond Btu/hr-ft-F        0.0117        0.0117        0.0117        0.0113        0.0227 
- - Liquid only - -
Molar flow lbmol/h       747.5404     1003.3068     3157.0065     7816.0498               
Mass flow  lb/h        70724.1936    94677.2674   298331.1457   708173.7649               
Average mol wt            94.6091       94.3651       94.4980       90.6051               
Actual dens lb/ft3        47.1596       47.1954       47.1759       47.5525               
Actual vol ft3/hr       1499.6774     2006.0714     6323.8037    14892.4570               
Std liq  ft3/hr         1301.3552     1741.8115     5489.0039    12992.4863               
Std vap 60F scfh      283675.8438   380733.7813  1198017.3750  2966023.7500               
Cp Btu/lb-F                0.4971        0.4964        0.4967        0.4885               
Z factor                   0.0081        0.0081        0.0081        0.0083               
Visc cP                    0.2090        0.2096        0.2093        0.2154               
Th cond Btu/hr-ft-F        0.0613        0.0614        0.0614        0.0627               
Surf tens dyne/cm         15.9094       15.9538       15.9296       16.3255               
ChemCAD 4, 0, 0, 60   License: ICARUS, INC.                                              Page: 10

Job Code: AUTOREB   Case Code: AUTOREB    Date: 9/11/98  Time: 10:51 AM
STREAM PROPERTIES 

Stream No.                     26            27            28            29            30
       Name                 STEAM                                      COND               
- - Overall - -
Molar flow lbmol/h       815.7603      821.3096      826.8590      810.2109      815.7603 
Mass flow  lb/h        14695.9209    14795.8926    14895.8643    14595.9482    14695.9209 
Temp F                   450.0000      450.0000      450.0000      420.9049      420.9049 
Pres psia                314.6960      314.6960      314.6960      314.6960      314.6960 
Vapor mole fraction         1.000         1.000         1.000     0.0001000     0.0001000 
Enth MMBtu/h             -82.9972      -83.5618      -84.1264      -94.4544      -95.1013 
Tc F                     705.5600      705.5600      705.5600      705.5600      705.5600 
Pc psia                 3207.9768     3207.9768     3207.9768     3207.9768     3207.9768 
Std. sp gr , wtr = 1        1.000         1.000         1.000         1.000         1.000 
Std. sp gr , air = 1        0.622         0.622         0.622         0.622         0.622 
Degree API                10.0110       10.0110       10.0110       10.0110       10.0110 
Average mol wt            18.0150       18.0150       18.0150       18.0150       18.0150 
Actual dens lb/ft3         0.6315        0.6315        0.6315       48.8256       48.8256 
Actual vol ft3/hr      23270.1152    23428.4141    23586.7129      298.9408      300.9882 
Std liq  ft3/hr          235.6374      237.2404      238.8433      234.0344      235.6374 
Std vap 60F scfh      309563.5938   311669.4375   313775.3125   307457.7188   309563.5938 
- - Vapor only - -
Molar flow lbmol/h       815.7603      821.3096      826.8590        0.0810        0.0816 
Mass flow  lb/h        14695.9209    14795.8926    14895.8643        1.4596        1.4696 
Average mol wt            18.0150       18.0150       18.0150       18.0150       18.0150 
Actual dens lb/ft3         0.6315        0.6315        0.6315        0.6590        0.6590 
Actual vol ft3/hr      23270.1152    23428.4141    23586.7129        2.2149        2.2301 
Std liq  ft3/hr          235.6374      237.2404      238.8433        0.0234        0.0236 
Std vap 60F scfh      309563.5938   311669.4375   313775.3125       30.7458       30.9564 
Cp Btu/lb-F                0.6859        0.6859        0.6859        0.7562        0.7562 
Z factor                   0.9197        0.9197        0.9197        0.9105        0.9105 
Visc cP                   0.01787       0.01787       0.01787       0.01722       0.01722 
Th cond Btu/hr-ft-F        0.0227        0.0227        0.0227        0.0218        0.0218 
- - Liquid only - -
Molar flow lbmol/h                                                 810.1299      815.6787 
Mass flow  lb/h                                                  14594.4886    14694.4513 
Average mol wt                                                      18.0150       18.0150 
Actual dens lb/ft3                                                  49.1851       49.1851 
Actual vol ft3/hr                                                  296.7258      298.7581 
Std liq  ft3/hr                                                    234.0110      235.6138 
Std vap 60F scfh                                                307426.9688   309532.6250 
Cp Btu/lb-F                                                          1.1143        1.1143 
Z factor                                                             0.0157        0.0157 
Visc cP                                                              0.1235        0.1235 
Th cond Btu/hr-ft-F                                                  0.3774        0.3774 
Surf tens dyne/cm                                                   34.1404       34.1404 
ChemCAD 4, 0, 0, 60   License: ICARUS, INC.                                              Page: 11

Job Code: AUTOREB   Case Code: AUTOREB    Date: 9/11/98  Time: 10:51 AM
STREAM PROPERTIES 

Stream No.                     31            32            49            50            51
       Name                                                                               
- - Overall - -
Molar flow lbmol/h       821.3096      826.8590     1892.5454     1626.0283     1931.3844 
Mass flow  lb/h        14795.8926    14895.8643   171474.1094   147326.3125   174993.1094 
Temp F                   420.9049      420.9049      269.5000      272.0000      271.0000 
Pres psia                314.6960      314.6960       28.0000       28.0000       28.0000 
Vapor mole fraction     0.0001000     0.0001000        0.5575        0.6500        0.6130 
Enth MMBtu/h             -95.7483      -96.3952       41.9576       38.2996       44.4189 
Tc F                     705.5600      705.5600      603.3521      603.3521      603.3520 
Pc psia                 3207.9768     3207.9768      642.3704      642.3710      642.3704 
Std. sp gr , wtr = 1        1.000         1.000         0.874         0.874         0.874 
Std. sp gr , air = 1        0.622         0.622         3.128         3.128         3.128 
Degree API                10.0110       10.0110       30.4181       30.4181       30.4181 
Average mol wt            18.0150       18.0150       90.6050       90.6050       90.6050 
Actual dens lb/ft3        48.8256       48.8256        0.6073        0.5202        0.5520 
Actual vol ft3/hr        303.0358      305.0833   282343.1846   283194.6007   317019.0189 
Std liq  ft3/hr          237.2404      238.8433     3145.9438     2702.9175     3210.5054 
Std vap 60F scfh      311669.4375   313775.3125   718180.5000   617043.0000   732919.1250 
- - Vapor only - -
Molar flow lbmol/h         0.0821        0.0827     1055.1050     1056.9229     1183.8451 
Mass flow  lb/h            1.4796        1.4896    92551.3483    93345.5208   104269.0168 
Average mol wt            18.0150       18.0150       87.7177       88.3182       88.0766 
Actual dens lb/ft3         0.6590        0.6590        0.3297        0.3310        0.3305 
Actual vol ft3/hr          2.2453        2.2604   280671.5625   282049.0938   315519.3438 
Std liq  ft3/hr            0.0237        0.0239     1694.0961     1709.4846     1909.1522 
Std vap 60F scfh          31.1669       31.3775   400389.5938   401079.5000   449243.6875 
Cp Btu/lb-F                0.7562        0.7562        0.3623        0.3643        0.3635 
Z factor                   0.9105        0.9105        0.9520        0.9518        0.9518 
Visc cP                   0.01722       0.01722      0.009719      0.009712      0.009715 
Th cond Btu/hr-ft-F        0.0218        0.0218        0.0117        0.0117        0.0117 
- - Liquid only - -
Molar flow lbmol/h       821.2275      826.7763      837.4404      569.1054      747.5393 
Mass flow  lb/h        14794.4130    14894.3747    78922.7611    53980.7917    70724.0926 
Average mol wt            18.0150       18.0150       94.2428       94.8519       94.6091 
Actual dens lb/ft3        49.1851       49.1851       47.2133       47.1239       47.1596 
Actual vol ft3/hr        300.7905      302.8229     1671.6221     1145.5070     1499.6752 
Std liq  ft3/hr          237.2166      238.8194     1451.8480      993.4328     1301.3533 
Std vap 60F scfh      311638.2813   313743.9375   317790.9688   215963.4688   283675.4375 
Cp Btu/lb-F                1.1143        1.1143        0.4960        0.4978        0.4971 
Z factor                   0.0157        0.0157        0.0081        0.0081        0.0081 
Visc cP                    0.1235        0.1235        0.2100        0.2084        0.2090 
Th cond Btu/hr-ft-F        0.3774        0.3774        0.0615        0.0612        0.0613 
Surf tens dyne/cm         34.1404       34.1404       15.9760       15.8650       15.9094 
ChemCAD 4, 0, 0, 60   License: ICARUS, INC.                                              Page: 12

Job Code: AUTOREB   Case Code: AUTOREB    Date: 9/11/98  Time: 10:51 AM
STREAM PROPERTIES 

Stream No.                     67            68            69            70
       Name                                                                 
- - Overall - -
Molar flow lbmol/h      2366.1699     3608.0413     2416.3511     1593.4834 
Mass flow  lb/h       214386.8594   382855.7500   256403.3594   169087.3906 
Temp F                   270.0000      305.5000      306.0000      307.0000 
Pres psia                 28.0000       32.0000       32.0000       32.0000 
Vapor mole fraction        0.5760        0.0000        0.0000        0.0000 
Enth MMBtu/h              53.1100       1.83288       1.29456      0.942229 
Tc F                     603.3521      649.3558      649.3558      649.3558 
Pc psia                  642.3709      509.7829      509.7829      509.7826 
Std. sp gr , wtr = 1        0.874         0.866         0.866         0.866 
Std. sp gr , air = 1        3.128         3.664         3.664         3.664 
Degree API                30.4181       31.9596       31.9596       31.9596 
Average mol wt            90.6050      106.1118      106.1118      106.1118 
Actual dens lb/ft3         0.5877       46.0533       46.0349       45.9980 
Actual vol ft3/hr     364775.8235     8313.3096     5569.7603     3675.9766 
Std liq  ft3/hr         3933.2412     7090.9219     4748.8809     3131.6899 
Std vap 60F scfh      897910.9375  1369174.5000   916953.5625   604692.8750 
- - Vapor only - -
Molar flow lbmol/h      1362.8619                                           
Mass flow  lb/h       119709.4895                                           
Average mol wt            87.8369                                           
Actual dens lb/ft3         0.3300                                           
Actual vol ft3/hr     362769.7500                                           
Std liq  ft3/hr         2191.4277                                           
Std vap 60F scfh      517176.6563                                           
Cp Btu/lb-F                0.3627                                           
Z factor                   0.9519                                           
Visc cP                  0.009717                                           
Th cond Btu/hr-ft-F        0.0117                                           
- - Liquid only - -
Molar flow lbmol/h      1003.3080     3608.0413     2416.3511     1593.4834 
Mass flow  lb/h        94677.3698   382855.7500   256403.3594   169087.3906 
Average mol wt            94.3652      106.1118      106.1118      106.1118 
Actual dens lb/ft3        47.1954       46.0533       46.0349       45.9980 
Actual vol ft3/hr       2006.0735     8313.3096     5569.7603     3675.9766 
Std liq  ft3/hr         1741.8135     7090.9219     4748.8809     3131.6899 
Std vap 60F scfh      380734.2188  1369174.5000   916953.5625   604692.8750 
Cp Btu/lb-F                0.4964        0.5226        0.5229        0.5235 
Z factor                   0.0081        0.0104        0.0103        0.0103 
Visc cP                    0.2096        0.2011        0.2008        0.2001 
Th cond Btu/hr-ft-F        0.0614        0.0577        0.0576        0.0576 
Surf tens dyne/cm         15.9538       14.6184       14.5914       14.5375 
ChemCAD 4, 0, 0, 60   License: ICARUS, INC.                                              Page: 13

Job Code: AUTOREB   Case Code: AUTOREB    Date: 9/11/98  Time: 10:51 AM
FLOW SUMMARIES 

Stream No.                      1             2             3             4             5
Stream Name                                                                               
Temp  F                  340.0000      340.0000      340.0000      340.0000      305.5000 
Pres  psia                33.0505       33.0505       33.0505       33.0505       32.0000 
Enth  MMBtu/h              8.9102        5.9673        3.9352        4.4597        1.8329 
Vapor mass fraction       0.00000       0.00000       0.00000       0.00000       0.00000 
Total lb/h            382855.7500   256403.3906   169087.4063   191625.3281   382855.7500 
Flowrates in lb/h
Water                      0.0000        0.0000        0.0000        0.0000        0.0000 
Benzene                  391.1306      261.9452      172.7420      195.7670      391.1306 
Toluene                  385.5575      258.2128      170.2806      192.9776      385.5575 
P-Xylene              382079.0625   255883.2344   168744.3906   191236.5938   382079.0625 

Stream No.                      6             7             8             9            10
Stream Name                                                       COL2 BTMS               
Temp  F                  306.0000      307.0000      311.5876      340.0000      307.0513 
Pres  psia                32.0000       32.0000       32.0000       33.0505       32.0000 
Enth  MMBtu/h              1.2946       0.94223        1.5295        23.272        5.5991 
Vapor mass fraction       0.00000       0.00000       0.00000       0.00000       0.00000 
Total lb/h            256403.3594   169087.3906   191625.3281   999971.8750   999971.8750 
Flowrates in lb/h
Water                      0.0000        0.0000        0.0000        0.0000        0.0000 
Benzene                  261.9451      172.7420      195.7670     1021.5848     1021.5848 
Toluene                  258.2127      170.2806      192.9776     1007.0285     1007.0284 
P-Xylene              255883.2031   168744.3750   191236.5938   997943.2500   997943.2500 

Stream No.                     11            12            13            14            15
Stream Name                                                                               
Temp  F                  260.0000      260.0000      260.0000      260.0000      260.5000 
Pres  psia                29.8952       29.8952       29.8952       29.8952       29.0000 
Enth  MMBtu/h              27.005        23.202        27.560        33.764        29.936 
Vapor mass fraction   1.0154E-005   1.1557E-005   1.1191E-005   1.1191E-005       0.10885 
Total lb/h            171474.1094   147326.3125   174993.0938   214386.8281   171474.1094 
Flowrates in lb/h
Water                      0.0000        0.0000        0.0000        0.0000        0.0000 
Benzene                57841.2031    49695.7305    59028.2188    72316.4063    57841.2031 
Toluene                57017.0352    48987.6289    58187.1367    71285.9844    57017.0352 
P-Xylene               56615.8672    48642.9570    57777.7422    70784.4297    56615.8672 

Stream No.                     16            17            18            19            20
Stream Name                                                                               
Temp  F                  261.0000      262.0000      263.0000      269.5000      272.0000 
Pres  psia                29.0000       29.0000       29.0000       28.0000       28.0000 
Enth  MMBtu/h              26.195        32.232        40.841        41.958        38.300 
Vapor mass fraction       0.12819       0.16654       0.20447       0.53974       0.63360 
Total lb/h            147326.3906   174993.3594   214386.6406   171474.1094   147326.3906 
Flowrates in lb/h
Water                      0.0000        0.0000        0.0000        0.0000        0.0000 
Benzene                49695.7539    59028.3086    72316.3438    57841.2031    49695.7539 
Toluene                48987.6484    58187.2266    71285.9297    57017.0352    48987.6484 
P-Xylene               48642.9844    57777.8242    70784.3672    56615.8672    48642.9844 

Stream No.                     21            22            23            24            25
Stream Name                                                       COL1 BTMS               
Temp  F                  271.0000      270.0000      270.5442      260.0000      450.0000 
Pres  psia                28.0000       28.0000       28.0000       29.8952      314.6960 
Enth  MMBtu/h              44.419        53.110        177.79        111.53       -82.433 
Vapor mass fraction       0.59585       0.55838       0.57874   1.1191E-005        1.0000 
Total lb/h            174993.3594   214386.6406   708180.3750   708180.3750    14595.9482 
Flowrates in lb/h
Water                      0.0000        0.0000        0.0000        0.0000    14595.9482 
Benzene                59028.3086    72316.3438   238881.5781   238881.5781        0.0000 
Toluene                58187.2266    71285.9297   235477.7969   235477.7969        0.0000 
P-Xylene               57777.8242    70784.3672   233821.0000   233821.0000        0.0000 
ChemCAD 4, 0, 0, 60   License: ICARUS, INC.                                              Page: 14

Job Code: AUTOREB   Case Code: AUTOREB    Date: 9/11/98  Time: 10:51 AM
FLOW SUMMARIES 

Stream No.                     26            27            28            29            30
Stream Name                 STEAM                                      COND               
Temp  F                  450.0000      450.0000      450.0000      420.9049      420.9049 
Pres  psia               314.6960      314.6960      314.6960      314.6960      314.6960 
Enth  MMBtu/h             -82.997       -83.562       -84.126       -94.454       -95.101 
Vapor mass fraction        1.0000        1.0000        1.0000       0.00000       0.00000 
Total lb/h             14695.9209    14795.8926    14895.8643    14595.9482    14695.9209 
Flowrates in lb/h
Water                  14695.9209    14795.8926    14895.8643    14595.9482    14695.9209 
Benzene                    0.0000        0.0000        0.0000        0.0000        0.0000 
Toluene                    0.0000        0.0000        0.0000        0.0000        0.0000 
P-Xylene                   0.0000        0.0000        0.0000        0.0000        0.0000 

Stream No.                     31            32            49            50            51
Stream Name                                                                               
Temp  F                  420.9049      420.9049      269.5000      272.0000      271.0000 
Pres  psia               314.6960      314.6960       28.0000       28.0000       28.0000 
Enth  MMBtu/h             -95.748       -96.395        41.958        38.300        44.419 
Vapor mass fraction       0.00000       0.00000       0.53974       0.63360       0.59585 
Total lb/h             14795.8926    14895.8643   171474.1094   147326.3125   174993.1094 
Flowrates in lb/h
Water                  14795.8926    14895.8643        0.0000        0.0000        0.0000 
Benzene                    0.0000        0.0000    57841.2031    49695.7305    59028.2227 
Toluene                    0.0000        0.0000    57017.0352    48987.6250    58187.1406 
P-Xylene                   0.0000        0.0000    56615.8672    48642.9609    57777.7422 

Stream No.                     67            68            69            70
Stream Name                                                                 
Temp  F                  270.0000      305.5000      306.0000      307.0000 
Pres  psia                28.0000       32.0000       32.0000       32.0000 
Enth  MMBtu/h              53.110        1.8329        1.2946       0.94223 
Vapor mass fraction       0.55838       0.00000       0.00000       0.00000 
Total lb/h            214386.8438   382855.7500   256403.3594   169087.3906 
Flowrates in lb/h
Water                      0.0000        0.0000        0.0000        0.0000 
Benzene                72316.4141      391.1306      261.9451      172.7420 
Toluene                71285.9922      385.5575      258.2127      170.2806 
P-Xylene               70784.4375   382079.0625   255883.2031   168744.3750 

