$ Generated by PRO/II Keyword Generation System <version 5.1 - 05-03-99>
$ Generated on: Fri Oct 01 14:55:34 1999
TITLE PROJECT=SAMPLE, PROBLEM=STD, USER=SIMSCI, DATE=APR91
  DESCRIPTION FLASH F2 TEMPERATURE = 10 DEGREES
  PRINT INPUT=PART, STREAM=ALL, RATE=WT, FRACTION=WT
  TOLERANCE TEMPERATURE=-0.055556, DUTY=0.005, MISCELLANEOUS=0.01
  DIMENSION SI, TEMP=C, PRES=KPA, WT=KG, TIME=HR, LIQVOL=M3, &
         VAPVOL=M3, XDENSITY=SPGR, ENERGY=KJ, WORK=KW, CONDUCT=WMK, &
         VISCOSITY=PAS, SURFACE=NM, PBASIS=101.325
  SEQUENCE PROCESS
  CALCULATION TVP=37.778
COMPONENT DATA
  LIBID 1,NITROGEN/2,CO2/3,METHANE/4,ETHANE/5,PROPANE/6,IBUTANE/ &
        7,BUTANE/8,IPENTANE/9,PENTANE/10,HEXANE
  PETRO 11,BP135,120,0.757,135
  PETRO 12,BP260,200,0.836,260
  PETRO 13,BP500,500,0.95,500
THERMODYNAMIC DATA
  METHOD KVAL(VLE)=SRK, VISCOSITY(L)=PETR, VISCOSITY(V)=PETR, &
         CONDUCTIVITY(L)=PETR, CONDUCTIVITY(V)=PETR, SURFTENSION=PETR, &
         ENTHALPY(L)=SRK, ENTHALPY(V)=SRK, DENSITY(L)=API, &
         DENSITY(V)=SRK, ENTROPY(L)=SRK, ENTROPY(V)=SRK, SET=SET01, &
         DEFAULT
STREAM DATA
  PROPERTY STREAM=1, TEMPERATURE=200, PRESSURE=2000, PHASE=M, &
         RATE(M)=7200, COMPOSITION(M)=1,180.004/2,190.904/3,1443.03/ &
        4,902.218/5,721.914/6,76.5715/7,279.406/8,94.7819/9,162.403/ &
        10,153.303/11,1191.03/12,902.218/13,902.218, NORMALIZE
  PROPERTY STREAM=FD-1, TEMPERATURE=40, PRESSURE=2000, PHASE=M,  &
        RATE(M)=16000, COMPOSITION(M)=4,4000/5,8000/6,4000, NORMALIZE
  PROPERTY STREAM=R1R, REFSTREAM=1, RATE(M)=1
  PROPERTY STREAM=R2R, REFSTREAM=1, RATE(M)=1
  NAME 1,MAIN FEED/FD-1,SEC-FEED/R1R,BALANCE-1/R2R,BALANCE-2/ &
        OV8,COL-OVERHEAD/BT8,COL-BOTTOMS
UNIT OPERATIONS
  FLASH UID=F1, NAME=FEED FLASH
      FEED 1,7
      PRODUCT  V=3
      ADIABATIC DP=0
      METHOD SET=SET01
  HX   UID=HX1, NAME=AFTERCOOL-1
      HOT  FEED=3,R1R, V=4, METH=SET01
      COLD FEED=FD-1,R2R, V=PR-2, METH=SET01
      CONFIGURE COUNTER, AREA=5000, FT=0.95, TPASS=1, SPASS=1
      OPER HTEMP=90
  FLASH UID=F2, NAME=STAGE 1 SEP
      FEED 4
      PRODUCT  V=6, L=5
      ISO  TEMPERATURE=10, PRESSURE=1000
      METHOD SET=SET01
  SPLITTER UID=SP1, NAME=UNIT-SP1
      FEED 5
      PRODUCT  M=7, M=8
      OPERATION OPTION=FILL
      SPEC STREAM=7, RATE(KGM/H),TOTAL,WET, DIVIDE, REFFEED, &
                 RATE(KGM/H),WET, VALUE=0.1
      METHOD SET=SET01
  COLUMN UID=COL2, NAME=FRAC-002
      PARAMETER TRAY=22,IO=20
      FEED 8,9
      PRODUCT  OVHD(M)=OV8, BTMS(M)=BT8,4289, SUPERSEDE=ON
      CONDENSER TYPE=BUBB, PRESSURE=1000, TEST=-100
      DUTY 1,1,-40/2,22,40
      PSPEC PTOP=1000
      PRINT PROPTABLE=ALL
      ESTIMATE MODEL=SIMPLE, RRATIO=2, CTEMP=-100, TTEMP=-50, &
                 BTEMP=50, RTEMP=140
      SPEC TRAY=1, RATE(KGM/H), PHASE=L,WET, DIVIDE, STREAM=OV8, &
                 RATE(KGM/H),TOTAL,WET, VALUE=2
      SPEC STREAM=BT8, RATE(KGM/H),TOTAL,WET, VALUE=4289
      VARY DUTY=1,2
      TOLERANCE ENTHALPY=0.001
      METHOD SET=SET01,22
END

 SIMULATION SCIENCES INC.               R                              PAGE H-1
 PROJECT  SAMPLE                  PRO/II  VERSION 5.1                    386/EM
 PROBLEM  STD                         CALCULATION                        SIMSCI
                                        HISTORY                           APR91
 ==============================================================================
 
     FLASH F2 TEMPERATURE = 10 DEGREES
  
 *** PROBLEM SOLUTION BEGINS
     FEED FLASH    COMPLETE
       LOOP  1     BEGINS   - 'LOOP1       '
     UNIT    1     SOLVED   - 'F1          '
     UNIT    2     SOLVED   - 'HX1         '
     UNIT    3     SOLVED   - 'F2          '
     UNIT    4     SOLVED   - 'SP1         '
       MAX ERRORS:  X=9.E-5  (3)                 T=-.0123  (3)
                    P=0.
       LOOP  1     SOLVED AFTER   1 TRIALS
             INNER  0 : E(ENTH+SPEC) = 1.764E-05
       ITER  1 E(K) = 2.124E-04 E(ENTH+SPEC) = 1.764E-05  E(SUM) = 5.214E-05
               DAMP = 1.000E+00
             INNER  0 : E(ENTH+SPEC) = 1.759E-05
             RETRIEVING PREVIOUS MATRIX
             INNER  1 : E(ENTH+SPEC) = 1.248E-05  ALPHA =  0.2500
       ITER  2 E(K) = 9.628E-04 E(ENTH+SPEC) = 1.248E-05  E(SUM) = 5.736E-04
     UNIT    5     SOLVED   - 'COL2        '
 *** PROBLEM SOLUTION REACHED
  
 *** THIS RUN USED 237.99 PRO/II SIMULATION UNITS
  
 *** RUN STATISTICS
     STARTED    14:55:30 10/01/99          NO ERRORS
     FINISHED   14:55:32 10/01/99          NO WARNINGS
     RUN TIMES                             NO MESSAGES
       INTERACTIVE     0 MIN,  0.00 SEC
       CALCULATIONS    0 MIN,  1.46 SEC
       TOTAL           0 MIN,  1.46 SEC

 SIMULATION SCIENCES INC.               R                              PAGE I-1
 PROJECT  SAMPLE                  PRO/II  VERSION 5.1                    386/EM
 PROBLEM  STD                            OUTPUT                          SIMSCI
                                         INDEX                            APR91
 ==============================================================================
 
  PAGE    CONTENTS
 ------  ----------------------------------------------------------------
     1   COMPONENT DATA
     2   CALCULATION SEQUENCE AND RECYCLES
     3   FLASH DRUM SUMMARY
         SPLITTER SUMMARY
     4     UNIT 4, 'SP1', 'UNIT-SP1'
         HEAT EXCHANGER SUMMARY
     5     UNIT 2, 'HX1', 'AFTERCOOL-1'
         COLUMN SUMMARY
     6     UNIT 5, 'COL2', 'FRAC-002'
     8       TRAY RATES AND DENSITIES
    11       TRAY TRANSPORT PROPERTIES
    12       TRAY ENTHALPIES
    13   STREAM WEIGHT COMPONENT RATES
    17   STREAM WEIGHT COMPONENT FRACTIONS
    21   STREAM SUMMARY

 SIMULATION SCIENCES INC.               R                              PAGE P-1
 PROJECT  SAMPLE                  PRO/II  VERSION 5.1                    386/EM
 PROBLEM  STD                            OUTPUT                          SIMSCI
                                     COMPONENT DATA                       APR91
 ==============================================================================
 
         COMPONENT         COMP. TYPE      PHASE     MOL. WEIGHT     SPGR
   ---------------------   -----------  -----------  -----------  -----------
     1  NITROGEN               LIBRARY      VAP/LIQ       28.013      0.80811
     2  CO2                    LIBRARY      VAP/LIQ       44.010      0.82700
     3  METHANE                LIBRARY      VAP/LIQ       16.043      0.30000
     4  ETHANE                 LIBRARY      VAP/LIQ       30.070      0.35640
     5  PROPANE                LIBRARY      VAP/LIQ       44.097      0.50770
     6  IBUTANE                LIBRARY      VAP/LIQ       58.124      0.56310
     7  BUTANE                 LIBRARY      VAP/LIQ       58.124      0.58440
     8  IPENTANE               LIBRARY      VAP/LIQ       72.151      0.62273
     9  PENTANE                LIBRARY      VAP/LIQ       72.151      0.63100
    10  HEXANE                 LIBRARY      VAP/LIQ       86.178      0.66400
    11  BP135                PETRO CUT      VAP/LIQ      120.000      0.75700
    12  BP260                PETRO CUT      VAP/LIQ      200.000      0.83600
    13  BP500                PETRO CUT      VAP/LIQ      500.000      0.95000
 
         COMPONENT             NBP      CRIT. TEMP.  CRIT. PRES.  CRIT. VOLM.
                                C            C           KPA       M3/KG-MOL
   ---------------------   -----------  -----------  -----------  -----------
     1  NITROGEN              -195.800     -146.900     3394.390       0.0901
     2  CO2                    -78.480       31.040     7381.520       0.0940
     3  METHANE               -161.490      -82.600     4600.150       0.0990
     4  ETHANE                 -88.630       32.300     4883.860       0.1480
     5  PROPANE                -42.070       96.670     4249.570       0.2030
     6  IBUTANE                -11.730      134.980     3647.700       0.2630
     7  BUTANE                  -0.500      152.000     3799.690       0.2550
     8  IPENTANE                27.850      187.240     3381.210       0.3060
     9  PENTANE                 36.074      196.500     3369.060       0.3040
    10  HEXANE                  68.740      234.200     2968.820       0.3700
    11  BP135                  135.000      319.641     2686.227       0.4729
    12  BP260                  260.000      448.844     1903.639       0.7555
    13  BP500                  500.000      669.800     1097.966       1.4219
 
         COMPONENT         ACEN. FACT.  HEAT FORM.     G FORM.
                                         KJ/KG-MOL    KJ/KG-MOL
   ---------------------   -----------  -----------  -----------
     1  NITROGEN               0.04500         0.00         0.00
     2  CO2                    0.23100   -393494.00   -394410.00
     3  METHANE                0.01040    -74586.00    -50535.00
     4  ETHANE                 0.09860    -84015.60    -32123.10
     5  PROPANE                0.15290   -103856.00    -23584.80
     6  IBUTANE                0.17720   -134606.00    -21216.50
     7  BUTANE                 0.20130   -125772.00    -16675.60
     8  IPENTANE               0.22900   -154473.00    -14822.50
     9  PENTANE                0.25060   -146465.00     -8543.10
    10  HEXANE                 0.29430   -166940.00       -80.00
    11  BP135                  0.34658   -128284.45      MISSING
    12  BP260                  0.55395   -199063.48      MISSING
    13  BP500                  1.10983   -316228.21      MISSING

 SIMULATION SCIENCES INC.               R                              PAGE P-2
 PROJECT  SAMPLE                  PRO/II  VERSION 5.1                    386/EM
 PROBLEM  STD                            OUTPUT                          SIMSCI
                           CALCULATION SEQUENCE AND RECYCLES              APR91
 ==============================================================================
 
 CALCULATION SEQUENCE
 
  SEQ    UNIT ID     UNIT TYPE     SEQ    UNIT ID     UNIT TYPE
  ---  ------------  ----------    ---  ------------  ----------
    1  F1            FLASH           4  SP1           SPLITTER
    2  HX1           HX              5  COL2          COLUMN
    3  F2            FLASH
 
 
 RECYCLE LOOPS
 
  --------------- LOOPS ---------------- ------------ TEAR STREAMS ------------
       ID       FIRST UNIT   LAST UNIT        ID       FROM UNIT     TO UNIT
  ------------ ------------ ------------ ------------ ------------ ------------
  LOOP1        F1           SP1          7            SP1          F1

 SIMULATION SCIENCES INC.               R                              PAGE P-3
 PROJECT  SAMPLE                  PRO/II  VERSION 5.1                    386/EM
 PROBLEM  STD                            OUTPUT                          SIMSCI
                                   FLASH DRUM SUMMARY                     APR91
 ==============================================================================
 
 FLASH ID                             F1           F2
       NAME                   FEED FLASH  STAGE 1 SEP
  
       FEEDS                           1            4
                                       7
 
       PRODUCTS MIXED                  3
                VAPOR                               6
                LIQUID                              5
 
 TEMPERATURE, C                  180.512       10.000
 PRESSURE, KPA                  1000.000     1000.000
 PRESSURE DROP, KPA                0.000        0.000
 MOLE FRAC VAPOR                 0.58450      0.30233
 MOLE FRAC LIQUID                0.41550      0.69767
 DUTY, M*KJ/HR                   0.00000   -178.55834
 FLASH TYPE                  ADIABATIC-P   ISOTHERMAL

 SIMULATION SCIENCES INC.               R                              PAGE P-4
 PROJECT  SAMPLE                  PRO/II  VERSION 5.1                    386/EM
 PROBLEM  STD                            OUTPUT                          SIMSCI
                                    SPLITTER SUMMARY                      APR91
 ==============================================================================
 
                           UNIT 4, 'SP1', 'UNIT-SP1'
 
                   STREAM ID       FRACTION     ------------- RATES ----------
                                                  KG-MOL/HR           KG/HR
                  ------------    ----------    -------------       ----------
  FEED                       5                       5400.656        9.610E+05
  
  PRODUCTS                   7      0.1000            540.066        96098.540
                             8      0.9000           4860.590        8.649E+05
  
  TEMPERATURE, C                   10.0000
  PRESSURE, KPA                  1000.0000
  PRESSURE DROP, KPA                0.0000
  
  MOLE FRAC VAPOR                   0.0000
  MOLE FRAC TOTAL LIQUID            1.0000

 SIMULATION SCIENCES INC.               R                              PAGE P-5
 PROJECT  SAMPLE                  PRO/II  VERSION 5.1                    386/EM
 PROBLEM  STD                            OUTPUT                          SIMSCI
                                 HEAT EXCHANGER SUMMARY                   APR91
 ==============================================================================
 
                          UNIT 2, 'HX1', 'AFTERCOOL-1'
 
 OPERATING CONDITIONS
 
      DUTY, M*KJ/HR                           233.383
      LMTD, C                                  78.744
      F FACTOR (FT)                             0.950
      MTD, C                                   74.807
      U*A, KW/K                               866.608
      U, KW/M2-K                                0.173
      AREA, M2                               5000.000
 ** WARNING **  The number of tube passes (CONFIG TPASS=) has been reset to 2.
 
 
 HOT SIDE CONDITIONS                            INLET       OUTLET
                                          -----------  -----------
      FEEDS                                         3
                                                  R1R
      MIXED PRODUCT                                              4
       VAPOR, KG-MOL/HR                      4524.643     3487.570
              K*KG/HR                         195.764      109.589
          CP, KJ/KG-C                           2.296        2.012
      LIQUID, KG-MOL/HR                      3216.374     4253.447
              K*KG/HR                         822.948      909.122
          CP, KJ/KG-C                           2.444        2.129
       TOTAL, KG-MOL/HR                      7741.017     7741.017
              K*KG/HR                        1018.711     1018.711
      CONDENSATION, KG-MOL/HR                             1037.073
       TEMPERATURE, C                         180.515       90.000
       PRESSURE, KPA                         1000.000     1000.000
 
 
 COLD SIDE CONDITIONS                           INLET       OUTLET
                                          -----------  -----------
      FEEDS                                      FD-1
                                                  R2R
      MIXED PRODUCT                                           PR-2
       VAPOR, KG-MOL/HR                                  15995.303
              K*KG/HR                                      705.336
          CP, KJ/KG-C                                        2.331
      LIQUID, KG-MOL/HR                     16001.000        5.697
              K*KG/HR                         705.680        0.344
          CP, KJ/KG-C                           3.205        2.735
       TOTAL, KG-MOL/HR                     16001.000    16001.000
              K*KG/HR                         705.680      705.680
      VAPORIZATION, KG-MOL/HR                            15995.303
       TEMPERATURE, C                          40.025       63.640
       PRESSURE, KPA                         2000.000     2000.000

 SIMULATION SCIENCES INC.               R                              PAGE P-6
 PROJECT  SAMPLE                  PRO/II  VERSION 5.1                    386/EM
 PROBLEM  STD                            OUTPUT                          SIMSCI
                                     COLUMN SUMMARY                       APR91
 ==============================================================================
 
                           UNIT 5, 'COL2', 'FRAC-002'
 
 TOTAL NUMBER OF ITERATIONS
 
     IN/OUT METHOD      7
 
 
 COLUMN SUMMARY
 
                            ---------- NET FLOW RATES -----------     HEATER
   TRAY    TEMP   PRESSURE   LIQUID    VAPOR    FEED     PRODUCT      DUTIES
           DEG C    KPA                  KG-MOL/HR                   M*KJ/HR
  ------  ------- --------  -------- -------- --------- ---------  ------------
       1C   -96.1  1000.00    1142.5                       571.2L      -24.0732
       2    -45.5  1000.00    1265.9   1713.7
       3    -37.9  1000.00    1303.3   1837.1
       4    -36.8  1000.00    1307.7   1874.6
       5    -36.6  1000.00    1305.8   1879.0
       6    -36.3  1000.00    1295.0   1877.0
       7    -35.2  1000.00    1251.8   1866.3
       8    -30.9  1000.00     935.1   1823.0
       9     12.3  1000.00    6220.2   1506.3   4860.6L
      10     14.1  1000.00    6445.1   1930.9
      11     14.5  1000.00    6496.7   2155.8
      12     14.6  1000.00    6510.1   2207.4
      13     14.6  1000.00    6515.5   2220.7
      14     14.7  1000.00    6521.3   2226.1
      15     14.9  1000.00    6535.8   2232.0
      16     15.5  1000.00    6579.2   2246.4
      17     17.3  1000.00    6707.4   2289.8
      18     21.8  1000.00    7043.3   2418.1
      19     30.1  1000.00    7705.4   2753.9
      20     41.4  1000.00    8483.7   3416.0
      21     59.4  1000.00    8341.0   4194.3
      22R   132.4  1000.00             4051.7             4289.3L      235.3911
 
 
 FEED AND PRODUCT STREAMS
 
  TYPE     STREAM    PHASE   FROM  TO   LIQUID        FLOW RATES    HEAT RATES
                             TRAY TRAY   FRAC         KG-MOL/HR      M*KJ/HR
  ----- ------------ ------  ---- ----  ------       ------------  ------------
  FEED  8            LIQUID          9  1.0000            4860.59       -6.5679
  PROD  OV8          LIQUID     1                          571.24       -4.2804
  PROD  BT8          LIQUID    22                         4289.35      209.0138
 
  OVERALL MOLE BALANCE, (FEEDS - PRODUCTS)            -7.9936E-13
  OVERALL HEAT BALANCE, (H(IN) - H(OUT)  )                               0.0166

 SIMULATION SCIENCES INC.               R                              PAGE P-7
 PROJECT  SAMPLE                  PRO/II  VERSION 5.1                    386/EM
 PROBLEM  STD                            OUTPUT                          SIMSCI
                                     COLUMN SUMMARY                       APR91
 ==============================================================================
 
                       UNIT 5, 'COL2', 'FRAC-002'  (CONT)
 
 SPECIFICATIONS
 
      PARAMETER      TRAY   COMP   SPECIFICATION  SPECIFIED   CALCULATED
        TYPE          NO     NO        TYPE         VALUE       VALUE
  -----------------  ----  ------  -------------  ----------  ----------
  TRAY LIQ              1          MOL RATIO       2.000E+00   2.000E+00
  STRM BT8             22          MOL RATE        4.289E+03   4.289E+03
 
 
 REFLUX RATIOS
 
                                     -------- REFLUX RATIOS --------
                                       MOLAR      WEIGHT   STD L VOL
                                     ---------  ---------  ---------
  REFLUX / FEED STREAM 8                0.2351     0.0362     0.0796
  REFLUX / LIQUID DISTILLATE            2.0000     2.0000     2.0000

 SIMULATION SCIENCES INC.               R                              PAGE P-8
 PROJECT  SAMPLE                  PRO/II  VERSION 5.1                    386/EM
 PROBLEM  STD                            OUTPUT                          SIMSCI
                                     COLUMN SUMMARY                       APR91
 ==============================================================================
 
                       UNIT 5, 'COL2', 'FRAC-002'  (CONT)
 
 TRAY NET VAPOR RATES AND DENSITIES
 
                                          --------------- RATES ---------------
  TRAY     MW     ACTUAL DENS   Z FROM                   NORMAL       ACTUAL
                     KG/M3      DENSITY     K*KG/HR      K*M3/HR      K*M3/HR
  ----  --------  ------------  --------  -----------  -----------  -----------
     2    27.427      16.63715   0.87087       47.003       38.411        2.825
     3    29.242      17.49292   0.85446       53.720       41.177        3.071
     4    29.317      17.50821   0.85209       54.957       42.016        3.139
     5    29.297      17.48415   0.85179       55.049       42.116        3.148
     6    29.305      17.46155   0.85205       55.007       42.072        3.150
     7    29.380      17.40174   0.85337       54.831       41.831        3.151
     8    29.692      17.17047   0.85870       54.130       40.862        3.152
     9    30.804      14.23503   0.91179       46.401       33.763        3.260
    10    31.840      14.76919   0.90275       61.480       43.279        4.163
    11    31.952      14.83383   0.90067       68.881       48.320        4.644
    12    31.937      14.82955   0.90016       70.495       49.476        4.754
    13    31.923      14.82325   0.90000       70.893       49.776        4.783
    14    31.928      14.82287   0.89993       71.075       49.896        4.795
    15    31.969      14.83274   0.89985       71.354       50.027        4.811
    16    32.109      14.86912   0.89964       72.131       50.351        4.851
    17    32.535      14.98512   0.89896       74.500       51.324        4.972
    18    33.703      15.32722   0.89669       81.496       54.199        5.317
    19    36.241      16.13819   0.89054       99.804       61.726        6.184
    20    39.968      17.34774   0.88094      136.530       76.567        7.870
    21    44.006      18.10727   0.87901      184.574       94.011       10.193
    22    51.757      16.78646   0.91432      209.703       90.814       12.492

 SIMULATION SCIENCES INC.               R                              PAGE P-9
 PROJECT  SAMPLE                  PRO/II  VERSION 5.1                    386/EM
 PROBLEM  STD                            OUTPUT                          SIMSCI
                                     COLUMN SUMMARY                       APR91
 ==============================================================================
 
                       UNIT 5, 'COL2', 'FRAC-002'  (CONT)
 
 TRAY NET LIQUID RATES AND DENSITIES
 
                                          --------------- RATES ---------------
  TRAY     MW     ACTUAL DENS   Z FROM                   STD LIQ      ACTUAL
                     KG/M3      DENSITY     K*KG/HR       M3/HR        M3/HR
  ----  --------  ------------  --------  -----------  -----------  -----------
     1    27.427       657.894   0.02832       31.335       83.826       47.630
     2    30.060       518.483   0.03063       38.053      103.932       73.392
     3    30.146       490.650   0.03141       39.289      108.686       80.076
     4    30.113       485.984   0.03153       39.381      109.374       81.033
     5    30.126       484.993   0.03158       39.339      109.291       81.112
     6    30.241       484.793   0.03167       39.163      108.441       80.784
     7    30.725       485.044   0.03202       38.462      104.973       79.295
     8    32.866       488.511   0.03341       30.733       79.156       62.912
     9   146.409       780.516   0.07904      910.699     1172.657     1166.790
    10   142.449       771.732   0.07729      918.100     1193.317     1189.662
    11   141.566       769.591   0.07692      919.715     1198.188     1195.070
    12   141.336       768.991   0.07682      920.112     1199.492     1196.519
    13   141.248       768.762   0.07678      920.294     1200.016     1197.112
    14   141.164       768.580   0.07674      920.573     1200.559     1197.758
    15   140.970       768.208   0.07661      921.350     1201.868     1199.350
    16   140.401       767.136   0.07625      923.719     1205.771     1204.113
    17   138.759       764.013   0.07520      930.715     1217.303     1218.192
    18   134.742       756.013   0.07268      949.023     1247.559     1255.301
    19   127.930       740.806   0.06848      985.749     1307.886     1330.644
    20   121.857       722.947   0.06445     1033.793     1382.970     1429.970
    21   126.954       717.255   0.06402     1058.922     1395.930     1476.355
    22   197.983       750.946   0.07818      849.219     1010.767     1130.866

 SIMULATION SCIENCES INC.               R                             PAGE P-10
 PROJECT  SAMPLE                  PRO/II  VERSION 5.1                    386/EM
 PROBLEM  STD                            OUTPUT                          SIMSCI
                                     COLUMN SUMMARY                       APR91
 ==============================================================================
 
                       UNIT 5, 'COL2', 'FRAC-002'  (CONT)
 
 TRAY STANDARD LIQUID DENSITIES
 
  TRAY  ------ DENSITY -------  -------- API ---------  -------- SPGR --------
               KG/M3                                          WATER 60F
          LIQUID       VAPOR      LIQUID       VAPOR      LIQUID       VAPOR
  ----  ----------  ----------  ----------  ----------  ----------  ----------
     1     373.813       0.000     246.658       0.000      0.3742      0.0000
     2     366.131     373.813     254.593     246.658      0.3665      0.3742
     3     361.494     368.339     259.545     252.278      0.3619      0.3687
     4     360.058     364.922     261.105     255.871      0.3604      0.3653
     5     359.948     363.869     261.224     256.993      0.3603      0.3642
     6     361.149     363.792     259.919     257.075      0.3615      0.3642
     7     366.397     364.679     254.312     256.130      0.3668      0.3650
     8     388.263     368.513     232.584     252.097      0.3886      0.3689
     9     776.612     383.260      50.522     237.337      0.7774      0.3836
    10     769.369     379.764      52.236     240.732      0.7701      0.3801
    11     767.588     377.328      52.662     243.135      0.7683      0.3777
    12     767.085     376.133      52.783     244.325      0.7678      0.3765
    13     766.902     375.641      52.827     244.818      0.7677      0.3760
    14     766.787     375.564      52.854     244.895      0.7675      0.3759
    15     766.599     375.958      52.900     244.501      0.7674      0.3763
    16     766.082     377.450      53.024     243.015      0.7668      0.3778
    17     764.571     382.041      53.389     238.514      0.7653      0.3824
    18     760.704     394.584      54.328     226.752      0.7615      0.3950
    19     753.697     421.484      56.056     203.888      0.7544      0.4219
    20     747.517     459.513      57.607     176.131      0.7483      0.4600
    21     758.579     495.895      54.849     153.562      0.7593      0.4964
    22     840.173     544.453      36.752     128.137      0.8410      0.5450

 SIMULATION SCIENCES INC.               R                             PAGE P-11
 PROJECT  SAMPLE                  PRO/II  VERSION 5.1                    386/EM
 PROBLEM  STD                            OUTPUT                          SIMSCI
                                     COLUMN SUMMARY                       APR91
 ==============================================================================
 
                       UNIT 5, 'COL2', 'FRAC-002'  (CONT)
 
 TRAY TRANSPORT PROPERTIES
 
  TRAY  - THERMAL CONDUCTIVITY -  ------ VISCOSITY -------  -- SURFACE --
                 W/M-K                      PAS                TENSION
          LIQUID        VAPOR       LIQUID        VAPOR          N/M
  ----  -----------  -----------  -----------  -----------  -------------
     1   1.9271E-01   0.0000E+00   1.4315E-04   0.0000E+00     1.0668E-02
     2   1.5463E-01   1.8193E-02   1.0487E-04   8.3159E-06     6.5202E-03
     3   1.4909E-01   1.7545E-02   9.8323E-05   8.2226E-06     5.8503E-03
     4   1.4837E-01   1.7442E-02   9.7167E-05   8.1867E-06     5.7434E-03
     5   1.4823E-01   1.7427E-02   9.6992E-05   8.1778E-06     5.7294E-03
     6   1.4811E-01   1.7441E-02   9.7237E-05   8.1816E-06     5.7585E-03
     7   1.4773E-01   1.7514E-02   9.8453E-05   8.2078E-06     5.8955E-03
     8   1.4614E-01   1.7825E-02   1.0385E-04   8.3177E-06     6.4913E-03
     9   1.0841E-01   2.2033E-02   4.2592E-04   9.5576E-06     2.1822E-02
    10   1.0816E-01   2.1315E-02   3.9165E-04   9.3936E-06     2.1129E-02
    11   1.0809E-01   2.1141E-02   3.8433E-04   9.3430E-06     2.0969E-02
    12   1.0808E-01   2.1091E-02   3.8241E-04   9.3250E-06     2.0926E-02
    13   1.0807E-01   2.1074E-02   3.8166E-04   9.3182E-06     2.0910E-02
    14   1.0806E-01   2.1070E-02   3.8097E-04   9.3163E-06     2.0894E-02
    15   1.0804E-01   2.1075E-02   3.7940E-04   9.3179E-06     2.0857E-02
    16   1.0797E-01   2.1097E-02   3.7485E-04   9.3260E-06     2.0748E-02
    17   1.0779E-01   2.1160E-02   3.6219E-04   9.3492E-06     2.0434E-02
    18   1.0729E-01   2.1302E-02   3.3347E-04   9.4000E-06     1.9647E-02
    19   1.0617E-01   2.1532E-02   2.9040E-04   9.4705E-06     1.8216E-02
    20   1.0433E-01   2.1923E-02   2.5356E-04   9.5434E-06     1.6623E-02
    21   1.0080E-01   2.3087E-02   2.4486E-04   9.7751E-06     1.5925E-02
    22   8.6767E-02   3.0685E-02   3.0986E-04   1.1179E-05     1.6789E-02

 SIMULATION SCIENCES INC.               R                             PAGE P-12
 PROJECT  SAMPLE                  PRO/II  VERSION 5.1                    386/EM
 PROBLEM  STD                            OUTPUT                          SIMSCI
                                     COLUMN SUMMARY                       APR91
 ==============================================================================
 
                       UNIT 5, 'COL2', 'FRAC-002'  (CONT)
 
 TRAY ENTHALPIES
 
  TRAY         M*KJ/HR               K*KJ/KG-MOL                KJ/KG
          LIQUID       VAPOR      LIQUID       VAPOR      LIQUID       VAPOR
  ----  ----------  ----------  ----------  ----------  ----------  ----------
     1      -8.561       0.000      -7.493       0.000    -273.197       0.000
     2      -5.090      11.232      -4.021       6.554    -133.760     238.972
     3      -4.505      14.702      -3.457       8.003    -114.668     273.677
     4      -4.433      15.286      -3.390       8.155    -112.563     278.153
     5      -4.411      15.359      -3.378       8.174    -112.122     279.006
     6      -4.357      15.381      -3.364       8.194    -111.242     279.622
     7      -4.147      15.436      -3.313       8.271    -107.831     281.511
     8      -2.892      15.645      -3.093       8.582     -94.099     289.029
     9      -3.105      16.901      -0.499      11.220      -3.409     364.238
    10  -6.232E-02      23.259  -9.670E-03      12.046  -6.788E-02     378.319
    11       0.628      26.290   9.672E-02      12.195       0.683     381.669
    12       0.808      26.975       0.124      12.220       0.878     382.649
    13       0.894      27.153       0.137      12.227       0.972     383.020
    14       1.031      27.241       0.158      12.237       1.120     383.269
    15       1.413      27.379       0.216      12.267       1.533     383.701
    16       2.571      27.762       0.391      12.359       2.784     384.889
    17       5.959      28.925       0.888      12.632       6.403     388.262
    18      14.756      32.325       2.095      13.368      15.549     396.641
    19      32.699      41.144       4.244      14.940      33.172     412.245
    20      59.604      59.104       7.026      17.302      57.655     432.901
    21     101.738      85.999      12.197      20.504      96.077     465.934
    22     209.014     128.118      48.729      31.621     246.125     610.952

 SIMULATION SCIENCES INC.               R                             PAGE P-13
 PROJECT  SAMPLE                  PRO/II  VERSION 5.1                    386/EM
 PROBLEM  STD                            OUTPUT                          SIMSCI
                             STREAM WEIGHT COMPONENT RATES                APR91
 ==============================================================================
 
 STREAM ID                           BT8         FD-1          OV8         PR-2
        NAME                 COL-BOTTOMS     SEC-FEED COL-OVERHEAD
        PHASE                     LIQUID       LIQUID       LIQUID        MIXED
  
 FLUID RATES, KG/HR
    1  NITROGEN               8.3316E-19       0.0000     120.0094       0.7003
    2  CO2                    6.0568E-04       0.0000    1996.5392       1.1669
    3  METHANE                4.7861E-09       0.0000    2439.7165       3.2154
    4  ETHANE                   748.4588  120279.9988   11111.3408  120283.7668
    5  PROPANE                23874.7314  352776.0010       0.1169  352780.4224
    6  IBUTANE                 3939.4260  232496.0022   9.9920E-07  232496.6203
    7  BUTANE                 14952.1128       0.0000   3.7363E-07       2.2556
    8  IPENTANE                6624.1125       0.0000   7.3968E-12       0.9498
    9  PENTANE                11442.6001       0.0000   1.3665E-12       1.6274
   10  HEXANE                 13123.3538       0.0000   6.4829E-19       1.8349
   11  BP135                 142880.5628       0.0000       0.0000      19.8505
   12  BP260                 180466.7232       0.0000       0.0000      25.0616
   13  BP500                 451167.0562       0.0000       0.0000      62.6540
 
 TOTAL RATE, KG/HR           849219.1381  705552.0020   15667.7227  705680.1260
 
 TEMPERATURE, C                 132.4328      40.0000     -96.1156      63.6396
 PRESSURE, KPA                 1000.0000    2000.0000    1000.0000    2000.0000
 ENTHALPY, M*KJ/HR              209.0138      74.3060      -4.2804     307.7475
 MOLECULAR WEIGHT               197.9833      44.0970      27.4275      44.1023
 WEIGHT FRAC VAPOR                0.0000       0.0000       0.0000       0.9995
 WEIGHT FRAC LIQUID               1.0000       1.0000       1.0000   4.8765E-04

 SIMULATION SCIENCES INC.               R                             PAGE P-14
 PROJECT  SAMPLE                  PRO/II  VERSION 5.1                    386/EM
 PROBLEM  STD                            OUTPUT                          SIMSCI
                             STREAM WEIGHT COMPONENT RATES                APR91
 ==============================================================================
 
 STREAM ID                           R1R          R2R            1            3
        NAME                   BALANCE-1    BALANCE-2    MAIN FEED
        PHASE                      MIXED        MIXED        MIXED        MIXED
  
 FLUID RATES, KG/HR
    1  NITROGEN                   0.7003       0.7003    5042.4512    5055.7843
    2  CO2                        1.1669       1.1669    8401.6831    8623.5009
    3  METHANE                    3.2154       3.2154   23150.5247   23421.5800
    4  ETHANE                     3.7680       3.7680   27129.6897   28447.3268
    5  PROPANE                    4.4214       4.4214   31834.2356   34486.7579
    6  IBUTANE                    0.6181       0.6181    4450.6410    4888.3157
    7  BUTANE                     2.2556       2.2556   16240.1913   17901.3877
    8  IPENTANE                   0.9498       0.9498    6838.6076    7574.5539
    9  PENTANE                    1.6274       1.6274   11717.5367   12988.8224
   10  HEXANE                     1.8349       1.8349   13211.3436   14669.3628
   11  BP135                     19.8505      19.8505  142923.5722  158797.7619
   12  BP260                     25.0616      25.0616  180443.5649  200493.6189
   13  BP500                     62.6540      62.6540  451108.9123  501234.0748
 
 TOTAL RATE, KG/HR              128.1240     128.1240  922492.9540   1.0186E+06
 
 TEMPERATURE, C                 200.0000     200.0000     200.0000     180.5123
 PRESSURE, KPA                 2000.0000    2000.0000    2000.0000    1000.0000
 ENTHALPY, M*KJ/HR                0.0585       0.0585     420.8611     420.1316
 MOLECULAR WEIGHT               128.1240     128.1240     128.1240     131.5996
 WEIGHT FRAC VAPOR                0.1786       0.1786       0.1786       0.1922
 WEIGHT FRAC LIQUID               0.8214       0.8214       0.8214       0.8078

 SIMULATION SCIENCES INC.               R                             PAGE P-15
 PROJECT  SAMPLE                  PRO/II  VERSION 5.1                    386/EM
 PROBLEM  STD                            OUTPUT                          SIMSCI
                             STREAM WEIGHT COMPONENT RATES                APR91
 ==============================================================================
 
 STREAM ID                             4            5            6            7
        NAME
        PHASE                      MIXED       LIQUID        VAPOR       LIQUID
  
 FLUID RATES, KG/HR
    1  NITROGEN                5056.4847     133.3437    4923.1409      13.3344
    2  CO2                     8624.6678    2218.3775    6406.2903     221.8378
    3  METHANE                23424.7953    2710.7962   20713.9992     271.0796
    4  ETHANE                 28451.0948   13177.5550   15273.5397    1317.7555
    5  PROPANE                34491.1793   26527.6092    7963.5701    2652.7609
    6  IBUTANE                 4888.9338    4377.1400     511.7938     437.7140
    7  BUTANE                 17903.6433   16613.4586    1290.1847    1661.3459
    8  IPENTANE                7575.5037    7360.1250     215.3787     736.0125
    9  PENTANE                12990.4498   12714.0001     276.4497    1271.4000
   10  HEXANE                 14671.1977   14581.5043      89.6935    1458.1504
   11  BP135                 158817.6124  158756.1809      61.4316   15875.6181
   12  BP260                 200518.6805  200518.5813       0.0993   20051.8581
   13  BP500                 501296.7288  501296.7291   1.5315E-10   50129.6729
 
 TOTAL RATE, KG/HR            1.0187E+06  960985.4009   57725.5715   96098.5401
 
 TEMPERATURE, C                  90.0000      10.0000      10.0000      10.0000
 PRESSURE, KPA                 1000.0000    1000.0000    1000.0000    1000.0000
 ENTHALPY, M*KJ/HR              186.8083      -7.2977      15.5477      -0.7298
 MOLECULAR WEIGHT               131.5991     177.9387      24.6652     177.9387
 WEIGHT FRAC VAPOR                0.1076       0.0000       1.0000       0.0000
 WEIGHT FRAC LIQUID               0.8924       1.0000       0.0000       1.0000

 SIMULATION SCIENCES INC.               R                             PAGE P-16
 PROJECT  SAMPLE                  PRO/II  VERSION 5.1                    386/EM
 PROBLEM  STD                            OUTPUT                          SIMSCI
                             STREAM WEIGHT COMPONENT RATES                APR91
 ==============================================================================
 
 STREAM ID                             8
        NAME
        PHASE                     LIQUID
  
 FLUID RATES, KG/HR
    1  NITROGEN                 120.0094
    2  CO2                     1996.5398
    3  METHANE                 2439.7165
    4  ETHANE                 11859.7995
    5  PROPANE                23874.8483
    6  IBUTANE                 3939.4260
    7  BUTANE                 14952.1128
    8  IPENTANE                6624.1125
    9  PENTANE                11442.6001
   10  HEXANE                 13123.3538
   11  BP135                 142880.5628
   12  BP260                 180466.7232
   13  BP500                 451167.0562
 
 TOTAL RATE, KG/HR           864886.8608
 
 TEMPERATURE, C                  10.0000
 PRESSURE, KPA                 1000.0000
 ENTHALPY, M*KJ/HR               -6.5679
 MOLECULAR WEIGHT               177.9387
 WEIGHT FRAC VAPOR                0.0000
 WEIGHT FRAC LIQUID               1.0000

 SIMULATION SCIENCES INC.               R                             PAGE P-17
 PROJECT  SAMPLE                  PRO/II  VERSION 5.1                    386/EM
 PROBLEM  STD                            OUTPUT                          SIMSCI
                           STREAM WEIGHT COMPONENT FRACTIONS              APR91
 ==============================================================================
 
 STREAM ID                           BT8         FD-1          OV8         PR-2
        NAME                 COL-BOTTOMS     SEC-FEED COL-OVERHEAD
        PHASE                     LIQUID       LIQUID       LIQUID        MIXED
  
 FLUID WEIGHT FRACTIONS
    1  NITROGEN                   0.0000       0.0000   7.6597E-03   9.9243E-07
    2  CO2                    7.1322E-10       0.0000       0.1274   1.6536E-06
    3  METHANE                5.6359E-15       0.0000       0.1557   4.5564E-06
    4  ETHANE                 8.8135E-04       0.1705       0.7092       0.1705
    5  PROPANE                    0.0281       0.5000   7.4590E-06       0.4999
    6  IBUTANE                4.6389E-03       0.3295   6.3774E-11       0.3295
    7  BUTANE                     0.0176       0.0000   2.3847E-11   3.1963E-06
    8  IPENTANE               7.8002E-03       0.0000   4.7211E-16   1.3459E-06
    9  PENTANE                    0.0135       0.0000   8.7218E-17   2.3062E-06
   10  HEXANE                     0.0155       0.0000       0.0000   2.6002E-06
   11  BP135                      0.1682       0.0000       0.0000   2.8130E-05
   12  BP260                      0.2125       0.0000       0.0000   3.5514E-05
   13  BP500                      0.5313       0.0000       0.0000   8.8785E-05
 
 TOTAL RATE, KG/HR           849219.1381  705552.0020   15667.7227  705680.1260
 
 TEMPERATURE, C                 132.4328      40.0000     -96.1156      63.6396
 PRESSURE, KPA                 1000.0000    2000.0000    1000.0000    2000.0000
 ENTHALPY, M*KJ/HR              209.0138      74.3060      -4.2804     307.7475
 MOLECULAR WEIGHT               197.9833      44.0970      27.4275      44.1023
 WEIGHT FRAC VAPOR                0.0000       0.0000       0.0000       0.9995
 WEIGHT FRAC LIQUID               1.0000       1.0000       1.0000   4.8765E-04

 SIMULATION SCIENCES INC.               R                             PAGE P-18
 PROJECT  SAMPLE                  PRO/II  VERSION 5.1                    386/EM
 PROBLEM  STD                            OUTPUT                          SIMSCI
                           STREAM WEIGHT COMPONENT FRACTIONS              APR91
 ==============================================================================
 
 STREAM ID                           R1R          R2R            1            3
        NAME                   BALANCE-1    BALANCE-2    MAIN FEED
        PHASE                      MIXED        MIXED        MIXED        MIXED
  
 FLUID WEIGHT FRACTIONS
    1  NITROGEN               5.4661E-03   5.4661E-03   5.4661E-03   4.9635E-03
    2  CO2                    9.1076E-03   9.1076E-03   9.1076E-03   8.4662E-03
    3  METHANE                    0.0251       0.0251       0.0251       0.0230
    4  ETHANE                     0.0294       0.0294       0.0294       0.0279
    5  PROPANE                    0.0345       0.0345       0.0345       0.0339
    6  IBUTANE                4.8246E-03   4.8246E-03   4.8246E-03   4.7991E-03
    7  BUTANE                     0.0176       0.0176       0.0176       0.0176
    8  IPENTANE               7.4132E-03   7.4132E-03   7.4132E-03   7.4364E-03
    9  PENTANE                    0.0127       0.0127       0.0127       0.0128
   10  HEXANE                     0.0143       0.0143       0.0143       0.0144
   11  BP135                      0.1549       0.1549       0.1549       0.1559
   12  BP260                      0.1956       0.1956       0.1956       0.1968
   13  BP500                      0.4890       0.4890       0.4890       0.4921
 
 TOTAL RATE, KG/HR              128.1240     128.1240  922492.9540   1.0186E+06
 
 TEMPERATURE, C                 200.0000     200.0000     200.0000     180.5123
 PRESSURE, KPA                 2000.0000    2000.0000    2000.0000    1000.0000
 ENTHALPY, M*KJ/HR                0.0585       0.0585     420.8611     420.1316
 MOLECULAR WEIGHT               128.1240     128.1240     128.1240     131.5996
 WEIGHT FRAC VAPOR                0.1786       0.1786       0.1786       0.1922
 WEIGHT FRAC LIQUID               0.8214       0.8214       0.8214       0.8078

 SIMULATION SCIENCES INC.               R                             PAGE P-19
 PROJECT  SAMPLE                  PRO/II  VERSION 5.1                    386/EM
 PROBLEM  STD                            OUTPUT                          SIMSCI
                           STREAM WEIGHT COMPONENT FRACTIONS              APR91
 ==============================================================================
 
 STREAM ID                             4            5            6            7
        NAME
        PHASE                      MIXED       LIQUID        VAPOR       LIQUID
  
 FLUID WEIGHT FRACTIONS
    1  NITROGEN               4.9636E-03   1.3876E-04       0.0853   1.3876E-04
    2  CO2                    8.4663E-03   2.3084E-03       0.1110   2.3084E-03
    3  METHANE                    0.0230   2.8209E-03       0.3588   2.8209E-03
    4  ETHANE                     0.0279       0.0137       0.2646       0.0137
    5  PROPANE                    0.0339       0.0276       0.1380       0.0276
    6  IBUTANE                4.7991E-03   4.5548E-03   8.8660E-03   4.5548E-03
    7  BUTANE                     0.0176       0.0173       0.0224       0.0173
    8  IPENTANE               7.4364E-03   7.6589E-03   3.7311E-03   7.6589E-03
    9  PENTANE                    0.0128       0.0132   4.7890E-03       0.0132
   10  HEXANE                     0.0144       0.0152   1.5538E-03       0.0152
   11  BP135                      0.1559       0.1652   1.0642E-03       0.1652
   12  BP260                      0.1968       0.2087   1.7199E-06       0.2087
   13  BP500                      0.4921       0.5216   2.6531E-15       0.5216
 
 TOTAL RATE, KG/HR            1.0187E+06  960985.4009   57725.5715   96098.5401
 
 TEMPERATURE, C                  90.0000      10.0000      10.0000      10.0000
 PRESSURE, KPA                 1000.0000    1000.0000    1000.0000    1000.0000
 ENTHALPY, M*KJ/HR              186.8083      -7.2977      15.5477      -0.7298
 MOLECULAR WEIGHT               131.5991     177.9387      24.6652     177.9387
 WEIGHT FRAC VAPOR                0.1076       0.0000       1.0000       0.0000
 WEIGHT FRAC LIQUID               0.8924       1.0000       0.0000       1.0000

 SIMULATION SCIENCES INC.               R                             PAGE P-20
 PROJECT  SAMPLE                  PRO/II  VERSION 5.1                    386/EM
 PROBLEM  STD                            OUTPUT                          SIMSCI
                           STREAM WEIGHT COMPONENT FRACTIONS              APR91
 ==============================================================================
 
 STREAM ID                             8
        NAME
        PHASE                     LIQUID
  
 FLUID WEIGHT FRACTIONS
    1  NITROGEN               1.3876E-04
    2  CO2                    2.3084E-03
    3  METHANE                2.8209E-03
    4  ETHANE                     0.0137
    5  PROPANE                    0.0276
    6  IBUTANE                4.5548E-03
    7  BUTANE                     0.0173
    8  IPENTANE               7.6589E-03
    9  PENTANE                    0.0132
   10  HEXANE                     0.0152
   11  BP135                      0.1652
   12  BP260                      0.2087
   13  BP500                      0.5216
 
 TOTAL RATE, KG/HR           864886.8608
 
 TEMPERATURE, C                  10.0000
 PRESSURE, KPA                 1000.0000
 ENTHALPY, M*KJ/HR               -6.5679
 MOLECULAR WEIGHT               177.9387
 WEIGHT FRAC VAPOR                0.0000
 WEIGHT FRAC LIQUID               1.0000

 SIMULATION SCIENCES INC.               R                             PAGE P-21
 PROJECT  SAMPLE                  PRO/II  VERSION 5.1                    386/EM
 PROBLEM  STD                            OUTPUT                          SIMSCI
                                     STREAM SUMMARY                       APR91
 ==============================================================================
 
 STREAM ID                           BT8         FD-1          OV8         PR-2
        NAME                 COL-BOTTOMS     SEC-FEED COL-OVERHEAD
        PHASE                     LIQUID       LIQUID       LIQUID        MIXED
  
 -----  TOTAL STREAM  -----
 RATE, KG-MOL/HR                4289.348    16000.000      571.242    16001.000
       K*KG/HR                   849.219      705.552       15.668      705.680
 STD LIQ RATE, M3/HR            1010.767     1446.649       41.913     1446.816
 TEMPERATURE, C                  132.433       40.000      -96.116       63.640
 PRESSURE, KPA                  1000.000     2000.000     1000.000     2000.000
 MOLECULAR WEIGHT                197.983       44.097       27.427       44.102
 ENTHALPY, M*KJ/HR               209.014       74.306       -4.280      307.747
           KJ/KG                 246.125      105.316     -273.197      436.101
 MOLE FRACTION LIQUID             1.0000       1.0000       1.0000   3.5604E-04
 REDUCED TEMP (KAYS RULE)         0.6333       0.8619       0.6475       0.9270
         PRES (KAYS RULE)         0.3953       0.4697       0.2002       0.4697
 ACENTRIC FACTOR                  0.5056       0.1454       0.0852       0.1454
 WATSON K (UOPK)                  11.964       15.216       17.956       15.215
 STD LIQ DENSITY, KG/M3          840.173      487.715      373.813      487.747
         SPECIFIC GRAVITY         0.8410       0.4882       0.3742       0.4882
         API GRAVITY              36.752      158.343      246.658      158.323
 
 --------  VAPOR  ---------
 RATE, KG-MOL/HR                     N/A          N/A          N/A    15995.303
       K*KG/HR                       N/A          N/A          N/A      705.336
       K*M3/HR                       N/A          N/A          N/A       16.593
 NORM VAP RATE(1), K*M3/HR           N/A          N/A          N/A      358.519
 SPECIFIC GRAVITY (AIR=1.0)          N/A          N/A          N/A        1.522
 MOLECULAR WEIGHT                    N/A          N/A          N/A       44.096
 ENTHALPY, KJ/KG                     N/A          N/A          N/A      436.245
 CP, KJ/KG-C                         N/A          N/A          N/A        2.331
 DENSITY, KG/K*M3                    N/A          N/A          N/A    42508.367
 Z (FROM DENSITY)                    N/A          N/A          N/A       0.7409
 TH COND, W/M-K                      N/A          N/A          N/A      0.02523
 VISCOSITY, PAS                      N/A          N/A          N/A  1.06760E-05
 
 --------  LIQUID  --------
 RATE, KG-MOL/HR                4289.348    16000.000      571.242        5.697
       K*KG/HR                   849.219      705.552       15.668        0.344
       M3/HR                    1130.866     1569.763       23.815        0.686
       GAL/MIN                  4979.047     6911.448      104.854        3.021
 STD LIQ RATE, M3/HR            1010.767     1446.649       41.913        0.598
 SPECIFIC GRAVITY (H2O=1.0)       0.8410       0.4882       0.3742       0.5760
 MOLECULAR WEIGHT                197.983       44.097       27.427       60.406
 ENTHALPY, KJ/KG                 246.125      105.316     -273.197      140.694
 CP, KJ/KG-C                       2.315        3.204        2.576        2.735
 DENSITY, KG/M3                  750.946      449.464      657.894      501.602
 Z (FROM DENSITY)                 0.0782       0.0754       0.0283       0.0860
 SURFACE TENSION, N/M             0.0168   4.0739E-03       0.0107   4.9096E-03
 THERMAL COND, W/M-K             0.08677      0.10667      0.19271      0.09538
 VISCOSITY, PAS              3.09864E-04  7.70252E-05  1.43149E-04  8.71901E-05
 
  (1) NORMAL VAPOR VOLUME IS 22.414 M3/KG-MOLE (273.15 K AND 1 ATM)

 SIMULATION SCIENCES INC.               R                             PAGE P-22
 PROJECT  SAMPLE                  PRO/II  VERSION 5.1                    386/EM
 PROBLEM  STD                            OUTPUT                          SIMSCI
                                     STREAM SUMMARY                       APR91
 ==============================================================================
 
 STREAM ID                           R1R          R2R            1            3
        NAME                   BALANCE-1    BALANCE-2    MAIN FEED
        PHASE                      MIXED        MIXED        MIXED        MIXED
  
 -----  TOTAL STREAM  -----
 RATE, KG-MOL/HR                   1.000        1.000     7200.000     7740.017
       K*KG/HR                     0.128        0.128      922.493     1018.583
 STD LIQ RATE, M3/HR               0.166        0.166     1198.210     1315.164
 TEMPERATURE, C                  200.000      200.000      200.000      180.512
 PRESSURE, KPA                  2000.000     2000.000     2000.000     1000.000
 MOLECULAR WEIGHT                128.124      128.124      128.124      131.600
 ENTHALPY, M*KJ/HR             5.845E-02    5.845E-02      420.861      420.132
           KJ/KG                 456.222      456.222      456.222      412.467
 MOLE FRACTION LIQUID             0.4406       0.4406       0.4406       0.4155
 REDUCED TEMP (KAYS RULE)         0.9862       0.9862       0.9862       0.9297
         PRES (KAYS RULE)         0.5829       0.5829       0.5829       0.2951
 ACENTRIC FACTOR                  0.3275       0.3275       0.3275       0.3364
 WATSON K (UOPK)                  12.334       12.334       12.334       12.309
 STD LIQ DENSITY, KG/M3          769.892      769.892      769.892      774.491
         SPECIFIC GRAVITY         0.7707       0.7707       0.7707       0.7753
         API GRAVITY              52.111       52.111       52.111       51.020
 
 --------  VAPOR  ---------
 RATE, KG-MOL/HR                   0.559        0.559     4027.816     4524.013
       K*KG/HR                 2.288E-02    2.288E-02      164.717      195.735
       K*M3/HR                 1.050E-03    1.050E-03        7.561       16.517
 NORM VAP RATE(1), K*M3/HR     1.254E-02    1.254E-02       90.279      101.401
 SPECIFIC GRAVITY (AIR=1.0)        1.412        1.412        1.412        1.494
 MOLECULAR WEIGHT                 40.895       40.895       40.895       43.266
 ENTHALPY, KJ/KG                 703.002      703.002      703.002      670.736
 CP, KJ/KG-C                       2.402        2.402        2.402        2.296
 DENSITY, KG/K*M3              21785.861    21785.861    21785.861    11850.286
 Z (FROM DENSITY)                 0.9543       0.9543       0.9543       0.9679
 TH COND, W/M-K                  0.05208      0.05208      0.05208      0.04673
 VISCOSITY, PAS              1.48025E-05  1.48025E-05  1.48025E-05  1.37784E-05
 
 --------  LIQUID  --------
 RATE, KG-MOL/HR                   0.441        0.441     3172.184     3216.004
       K*KG/HR                     0.105        0.105      757.776      822.848
       M3/HR                       0.143        0.143     1029.894     1075.242
       GAL/MIN                     0.630        0.630     4534.483     4734.140
 STD LIQ RATE, M3/HR               0.121        0.121      872.718      937.680
 SPECIFIC GRAVITY (H2O=1.0)       0.8692       0.8692       0.8692       0.8784
 MOLECULAR WEIGHT                238.881      238.881      238.881      255.860
 ENTHALPY, KJ/KG                 402.579      402.579      402.579      351.031
 CP, KJ/KG-C                       2.526        2.526        2.526        2.444
 DENSITY, KG/M3                  735.780      735.780      735.780      765.268
 Z (FROM DENSITY)                 0.1651       0.1651       0.1651       0.0886
 SURFACE TENSION, N/M             0.0142       0.0142       0.0142       0.0172
 THERMAL COND, W/M-K             0.07677      0.07677      0.07677      0.08057
 VISCOSITY, PAS              2.72788E-04  2.72788E-04  2.72788E-04  3.75303E-04
 
  (1) NORMAL VAPOR VOLUME IS 22.414 M3/KG-MOLE (273.15 K AND 1 ATM)

 SIMULATION SCIENCES INC.               R                             PAGE P-23
 PROJECT  SAMPLE                  PRO/II  VERSION 5.1                    386/EM
 PROBLEM  STD                            OUTPUT                          SIMSCI
                                     STREAM SUMMARY                       APR91
 ==============================================================================
 
 STREAM ID                             4            5            6            7
        NAME
        PHASE                      MIXED       LIQUID        VAPOR       LIQUID
  
 -----  TOTAL STREAM  -----
 RATE, KG-MOL/HR                7741.017     5400.656     2340.361      540.066
       K*KG/HR                  1018.711      960.985       57.726       96.099
 STD LIQ RATE, M3/HR            1315.331     1169.644      145.686      116.964
 TEMPERATURE, C                   90.000       10.000       10.000       10.000
 PRESSURE, KPA                  1000.000     1000.000     1000.000     1000.000
 MOLECULAR WEIGHT                131.599      177.939       24.665      177.939
 ENTHALPY, M*KJ/HR               186.808       -7.298       15.548       -0.730
           KJ/KG                 183.377       -7.594      269.338       -7.594
 MOLE FRACTION LIQUID             0.5495       1.0000       0.0000       1.0000
 REDUCED TEMP (KAYS RULE)         0.7442       0.4741       1.2017       0.4741
         PRES (KAYS RULE)         0.2951       0.3547       0.2127       0.3547
 ACENTRIC FACTOR                  0.3364       0.4562       0.0602       0.4562
 WATSON K (UOPK)                  12.309       12.073       16.237       12.073
 STD LIQ DENSITY, KG/M3          774.490      821.605      396.232      821.605
         SPECIFIC GRAVITY         0.7753       0.8224       0.3966       0.8224
         API GRAVITY              51.021       40.554      225.262       40.554
 
 --------  VAPOR  ---------
 RATE, KG-MOL/HR                3487.570          N/A     2340.361          N/A
       K*KG/HR                   109.589          N/A       57.726          N/A
       K*M3/HR                    10.172          N/A        5.274          N/A
 NORM VAP RATE(1), K*M3/HR        78.170          N/A       52.457          N/A
 SPECIFIC GRAVITY (AIR=1.0)        1.085          N/A        0.852          N/A
 MOLECULAR WEIGHT                 31.423          N/A       24.665          N/A
 ENTHALPY, KJ/KG                 465.374          N/A      269.338          N/A
 CP, KJ/KG-C                       2.012          N/A        1.800          N/A
 DENSITY, KG/K*M3              10773.074          N/A    10945.117          N/A
 Z (FROM DENSITY)                 0.9660          N/A       0.9572          N/A
 TH COND, W/M-K                  0.03513          N/A      0.02827          N/A
 VISCOSITY, PAS              1.23355E-05          N/A  1.07522E-05          N/A
 
 --------  LIQUID  --------
 RATE, KG-MOL/HR                4253.447     5400.656          N/A      540.066
       K*KG/HR                   909.122      960.985          N/A       96.099
       M3/HR                    1137.043     1161.949          N/A      116.195
       GAL/MIN                  5006.243     5115.902          N/A      511.590
 STD LIQ RATE, M3/HR            1067.136     1169.644          N/A      116.964
 SPECIFIC GRAVITY (H2O=1.0)       0.8528       0.8224          N/A       0.8224
 MOLECULAR WEIGHT                213.738      177.939          N/A      177.939
 ENTHALPY, KJ/KG                 149.384       -7.594          N/A       -7.594
 CP, KJ/KG-C                       2.129        1.837          N/A        1.837
 DENSITY, KG/M3                  799.550      827.046          N/A      827.046
 Z (FROM DENSITY)                 0.0885       0.0914          N/A       0.0914
 SURFACE TENSION, N/M             0.0216       0.0257          N/A       0.0257
 THERMAL COND, W/M-K             0.09403      0.10786          N/A      0.10786
 VISCOSITY, PAS              5.33720E-04  7.67242E-04          N/A  7.67242E-04
 
  (1) NORMAL VAPOR VOLUME IS 22.414 M3/KG-MOLE (273.15 K AND 1 ATM)

 SIMULATION SCIENCES INC.               R                             PAGE P-24
 PROJECT  SAMPLE                  PRO/II  VERSION 5.1                    386/EM
 PROBLEM  STD                            OUTPUT                          SIMSCI
                                     STREAM SUMMARY                       APR91
 ==============================================================================
 
 STREAM ID                             8
        NAME
        PHASE                     LIQUID
  
 -----  TOTAL STREAM  -----
 RATE, KG-MOL/HR                4860.590
       K*KG/HR                   864.887
 STD LIQ RATE, M3/HR            1052.680
 TEMPERATURE, C                   10.000
 PRESSURE, KPA                  1000.000
 MOLECULAR WEIGHT                177.939
 ENTHALPY, M*KJ/HR                -6.568
           KJ/KG                  -7.594
 MOLE FRACTION LIQUID             1.0000
 REDUCED TEMP (KAYS RULE)         0.4741
         PRES (KAYS RULE)         0.3547
 ACENTRIC FACTOR                  0.4562
 WATSON K (UOPK)                  12.073
 STD LIQ DENSITY, KG/M3          821.605
         SPECIFIC GRAVITY         0.8224
         API GRAVITY              40.554
 
 --------  VAPOR  ---------
 RATE, KG-MOL/HR                     N/A
       K*KG/HR                       N/A
       K*M3/HR                       N/A
 NORM VAP RATE(1), K*M3/HR           N/A
 SPECIFIC GRAVITY (AIR=1.0)          N/A
 MOLECULAR WEIGHT                    N/A
 ENTHALPY, KJ/KG                     N/A
 CP, KJ/KG-C                         N/A
 DENSITY, KG/K*M3                    N/A
 Z (FROM DENSITY)                    N/A
 TH COND, W/M-K                      N/A
 VISCOSITY, PAS                      N/A
 
 --------  LIQUID  --------
 RATE, KG-MOL/HR                4860.590
       K*KG/HR                   864.887
       M3/HR                    1045.754
       GAL/MIN                  4604.311
 STD LIQ RATE, M3/HR            1052.680
 SPECIFIC GRAVITY (H2O=1.0)       0.8224
 MOLECULAR WEIGHT                177.939
 ENTHALPY, KJ/KG                  -7.594
 CP, KJ/KG-C                       1.837
 DENSITY, KG/M3                  827.046
 Z (FROM DENSITY)                 0.0914
 SURFACE TENSION, N/M             0.0257
 THERMAL COND, W/M-K             0.10786
 VISCOSITY, PAS              7.67242E-04
 
  (1) NORMAL VAPOR VOLUME IS 22.414 M3/KG-MOLE (273.15 K AND 1 ATM)
